@<TRIPOS>MOLECULE
CAT-4i
45   48    1
SMALL
USER_CHARGES


@<TRIPOS>ATOM
      1 C1         11.6799   -2.2515    1.3709 C.3       1 UNK        -0.0090 
      2 N1         12.9871   -2.4645    0.7394 N.am      1 UNK        -0.0184 
      3 C21        14.1849   -2.5408    1.3426 C.cat     1 UNK         0.5687 
      4 N2         14.4085   -2.4164    2.6556 N.pl3     1 UNK        -0.9138 
      5 N3         15.1680   -2.7715    0.4653 N.pl3     1 UNK        -0.5282 
      6 C2         14.6502   -2.9656   -0.8909 C.3       1 UNK         0.5630 
      7 C3         14.8475   -4.4552   -1.2486 C.ar      1 UNK        -0.1150 
      8 C4         13.8636   -5.4580   -1.0220 C.ar      1 UNK        -0.1150 
      9 C5         14.1122   -6.8048   -1.3507 C.ar      1 UNK        -0.1150 
     10 C6         15.3438   -7.1712   -1.9163 C.ar      1 UNK        -0.1150 
     11 C7         16.3455   -6.2032   -2.0969 C.ar      1 UNK        -0.1150 
     12 C8         16.1027   -4.8702   -1.7351 C.ar      1 UNK        -0.1150 
     13 C9         15.2192   -1.9235   -1.8834 C.ar      1 UNK        -0.1150 
     14 C10        15.5984   -2.2557   -3.2072 C.ar      1 UNK        -0.1150 
     15 C11        16.1188   -1.2726   -4.0620 C.ar      1 UNK        -0.1150 
     16 C12        16.1734    0.0730   -3.6556 C.ar      1 UNK        -0.1150 
     17 C13        15.7349    0.4623   -2.3714 C.ar      1 UNK        -0.0446 
     18 C14        15.6381    1.8956   -1.9854 C.ar      1 UNK         0.5296 
     19 C15        15.6686    2.3241   -0.6448 C.ar      1 UNK        -0.4470 
     20 C16        15.3940    3.6637   -0.3351 C.ar      1 UNK         0.2270 
     21 C17        15.0983    4.5443   -1.3837 C.ar      1 UNK        -0.4470 
     22 C18        15.1361    4.0514   -2.6961 C.ar      1 UNK         0.4730 
     23 N4         15.4016    2.7638   -2.9930 N.ar      1 UNK        -0.6780 
     24 C19        15.3176   -0.5642   -1.4872 C.ar      1 UNK        -0.1150 
     25 C20        13.1637   -2.6425   -0.6619 C.2       1 UNK         0.6225 
     26 O1         12.2501   -2.5949   -1.4964 O.2       1 UNK        -0.5000 
     27 H1         11.7437   -2.3618    2.4529 H         1 UNK         0.0600 
     28 H2         11.3123   -1.2542    1.1296 H         1 UNK         0.0600 
     29 H3         10.9552   -2.9810    1.0088 H         1 UNK         0.0600 
     30 H4         15.3668   -2.4681    3.0041 H         1 UNK         0.4600 
     31 H5         16.1551   -2.8599    0.7041 H         1 UNK         0.3451 
     32 H6         12.9016   -5.2397   -0.5855 H         1 UNK         0.1150 
     33 H7         13.3537   -7.5586   -1.1781 H         1 UNK         0.1150 
     34 H8         15.5208   -8.1951   -2.1987 H         1 UNK         0.1150 
     35 H9         17.3016   -6.4672   -2.5163 H         1 UNK         0.1150 
     36 H10        16.8780   -4.1347   -1.8690 H         1 UNK         0.1150 
     37 H11        15.5199   -3.2608   -3.5989 H         1 UNK         0.1150 
     38 H12        16.4500   -1.5558   -5.0471 H         1 UNK         0.1150 
     39 H13        16.5221    0.8208   -4.3560 H         1 UNK         0.1150 
     40 H14        15.8684    1.6239    0.1454 H         1 UNK         0.1550 
     41 H15        15.3941    4.0062    0.6886 H         1 UNK         0.0650 
     42 H16        14.8564    5.5796   -1.1863 H         1 UNK         0.1550 
     43 H17        14.9279    4.7142   -3.5247 H         1 UNK         0.0120 
     44 H18        14.9877   -0.2835   -0.5003 H         1 UNK         0.1150 
     45 H19        13.6998   -2.1133    3.3230 H         1 UNK         0.4600 
@<TRIPOS>BOND
     1    1    2 1    
     2    1   27 1    
     3    1   28 1    
     4    1   29 1    
     5    2    3 1    
     6    2   25 am   BACKBONE|DICT|INTERRES
     7    3    4 ar   
     8    3    5 ar   
     9    4   30 1    
    10    4   45 1    
    11    5    6 1    
    12    5   31 1    
    13    6    7 1    
    14    6   13 1    
    15    6   25 1    
    16    7    8 ar   
    17    7   12 ar   
    18    8    9 ar   
    19    8   32 1    
    20    9   10 ar   
    21    9   33 1    
    22   10   11 ar   
    23   10   34 1    
    24   11   12 ar   
    25   11   35 1    
    26   12   36 1    
    27   13   14 ar   
    28   13   24 ar   
    29   14   15 ar   
    30   14   37 1    
    31   15   16 ar   
    32   15   38 1    
    33   16   17 ar   
    34   16   39 1    
    35   17   18 1    
    36   17   24 ar   
    37   18   19 ar   
    38   18   23 ar   
    39   19   20 ar   
    40   19   40 1    
    41   20   21 ar   
    42   20   41 1    
    43   21   22 ar   
    44   21   42 1    
    45   22   23 ar   
    46   22   43 1    
    47   24   44 1    
    48   25   26 2    
@<TRIPOS>SUBSTRUCTURE
     1 UNK         1 GROUP             0       ****    0 ROOT    
