@<TRIPOS>MOLECULE
CAT-4b
50   53    1
SMALL
USER_CHARGES


@<TRIPOS>ATOM
      1 C1         14.8899    4.8693    1.3571 C.3       1 UNK         0.1100 
      2 O1         15.4910    3.6586    0.9338 O.3       1 UNK        -0.2850 
      3 C23        15.4559    3.3612   -0.4093 C.ar      1 UNK         0.0850 
      4 C2         15.2031    4.3048   -1.4284 C.ar      1 UNK        -0.1150 
      5 C3         15.2285    3.9017   -2.7752 C.ar      1 UNK        -0.1150 
      6 C4         15.4668    2.5539   -3.1146 C.ar      1 UNK        -0.1150 
      7 C5         15.6673    1.5796   -2.1106 C.ar      1 UNK         0.0000 
      8 C6         15.7986    0.1373   -2.4299 C.ar      1 UNK         0.0000 
      9 C7         16.3443   -0.3086   -3.6508 C.ar      1 UNK        -0.1150 
     10 C8         16.4510   -1.6809   -3.9432 C.ar      1 UNK        -0.1150 
     11 C9         15.9729   -2.6431   -3.0346 C.ar      1 UNK        -0.1150 
     12 C10        15.3929   -2.2324   -1.8118 C.ar      1 UNK        -0.1150 
     13 C11        14.8068   -3.2363   -0.8026 C.3       1 UNK         0.5630 
     14 C12        15.1478   -4.7199   -1.0797 C.ar      1 UNK        -0.1150 
     15 C13        16.3640   -5.2427   -0.5907 C.ar      1 UNK        -0.1150 
     16 C14        16.7306   -6.5834   -0.7927 C.ar      1 UNK        -0.1150 
     17 C15        15.8591   -7.4486   -1.4649 C.ar      1 UNK        -0.1150 
     18 C16        14.6428   -6.9571   -1.9662 C.ar      1 UNK        -0.1150 
     19 C17        14.2970   -5.6023   -1.7883 C.ar      1 UNK        -0.1150 
     20 N1         15.2301   -2.9023    0.5590 N.pl3     1 UNK        -0.5282 
     21 C18        14.2089   -2.6079    1.3610 C.cat     1 UNK         0.5687 
     22 N2         14.3832   -2.3403    2.6584 N.pl3     1 UNK        -0.9138 
     23 N3         13.0407   -2.6284    0.7035 N.am      1 UNK        -0.0184 
     24 C19        11.7206   -2.2789    1.2434 C.3       1 UNK        -0.0090 
     25 C20        13.2873   -2.9901   -0.6544 C.2       1 UNK         0.6225 
     26 O2         12.4095   -3.0491   -1.5239 O.2       1 UNK        -0.5000 
     27 C21        15.3375   -0.8450   -1.5242 C.ar      1 UNK        -0.1150 
     28 C22        15.6869    2.0224   -0.7698 C.ar      1 UNK        -0.1150 
     29 H1         14.8788    4.9111    2.4463 H         1 UNK         0.0300 
     30 H2         15.4282    5.7406    0.9982 H         1 UNK         0.0300 
     31 H3         13.8628    4.9310    1.0041 H         1 UNK         0.0300 
     32 H4         15.0044    5.3416   -1.2030 H         1 UNK         0.1150 
     33 H5         15.0424    4.6344   -3.5450 H         1 UNK         0.1150 
     34 H6         15.4460    2.2647   -4.1552 H         1 UNK         0.1150 
     35 H7         16.6912    0.4067   -4.3795 H         1 UNK         0.1150 
     36 H8         16.8947   -1.9888   -4.8795 H         1 UNK         0.1150 
     37 H9         16.0546   -3.6885   -3.3003 H         1 UNK         0.1150 
     38 H10        17.0284   -4.6144   -0.0264 H         1 UNK         0.1150 
     39 H11        17.6721   -6.9466   -0.4046 H         1 UNK         0.1150 
     40 H12        16.1254   -8.4852   -1.5758 H         1 UNK         0.1150 
     41 H13        13.9725   -7.6251   -2.4858 H         1 UNK         0.1150 
     42 H14        13.3587   -5.2647   -2.1904 H         1 UNK         0.1150 
     43 H15        16.2092   -2.9002    0.8445 H         1 UNK         0.3451 
     44 H16        13.6426   -2.0451    3.2923 H         1 UNK         0.4600 
     45 H17        10.9257   -2.8241    0.7338 H         1 UNK         0.0600 
     46 H18        11.6592   -2.5072    2.3069 H         1 UNK         0.0600 
     47 H19        11.5441   -1.2128    1.1041 H         1 UNK         0.0600 
     48 H20        14.8871   -0.5182   -0.5990 H         1 UNK         0.1150 
     49 H21        15.8627    1.3168    0.0227 H         1 UNK         0.1150 
     50 H22        15.3275   -2.3481    3.0471 H         1 UNK         0.4600 
@<TRIPOS>BOND
     1    1    2 1    
     2    1   29 1    
     3    1   30 1    
     4    1   31 1    
     5    2    3 1    
     6    3    4 ar   
     7    3   28 ar   
     8    4    5 ar   
     9    4   32 1    
    10    5    6 ar   
    11    5   33 1    
    12    6    7 ar   
    13    6   34 1    
    14    7    8 1    
    15    7   28 ar   
    16    8    9 ar   
    17    8   27 ar   
    18    9   10 ar   
    19    9   35 1    
    20   10   11 ar   
    21   10   36 1    
    22   11   12 ar   
    23   11   37 1    
    24   12   13 1    
    25   12   27 ar   
    26   13   14 1    
    27   13   20 1    
    28   13   25 1    
    29   14   15 ar   
    30   14   19 ar   
    31   15   16 ar   
    32   15   38 1    
    33   16   17 ar   
    34   16   39 1    
    35   17   18 ar   
    36   17   40 1    
    37   18   19 ar   
    38   18   41 1    
    39   19   42 1    
    40   20   21 ar   
    41   20   43 1    
    42   21   22 ar   
    43   21   23 1    
    44   22   44 1    
    45   22   50 1    
    46   23   24 1    
    47   23   25 am   BACKBONE|DICT|INTERRES
    48   24   45 1    
    49   24   46 1    
    50   24   47 1    
    51   25   26 2    
    52   27   48 1    
    53   28   49 1    
@<TRIPOS>SUBSTRUCTURE
     1 UNK         1 GROUP             0       ****    0 ROOT    
