@<TRIPOS>MOLECULE
CAT-4k
45   48    1
SMALL
USER_CHARGES


@<TRIPOS>ATOM
      1 C1         11.7087   -2.3257    1.2760 C.3       1 UNK        -0.0090 
      2 N1         13.0268   -2.6680    0.7261 N.am      1 UNK        -0.0184 
      3 C21        14.2004   -2.6361    1.3737 C.cat     1 UNK         0.5687 
      4 N2         14.3830   -2.3568    2.6674 N.pl3     1 UNK        -0.9138 
      5 N3         15.2173   -2.9288    0.5653 N.pl3     1 UNK        -0.5282 
      6 C2         14.7842   -3.2713   -0.7916 C.3       1 UNK         0.5630 
      7 C3         15.1329   -4.7525   -1.0673 C.ar      1 UNK        -0.1150 
      8 C4         14.2837   -5.6424   -1.7688 C.ar      1 UNK        -0.1150 
      9 C5         14.6395   -6.9945   -1.9475 C.ar      1 UNK        -0.1150 
     10 C6         15.8632   -7.4748   -1.4526 C.ar      1 UNK        -0.1150 
     11 C7         16.7337   -6.6012   -0.7899 C.ar      1 UNK        -0.1150 
     12 C8         16.3585   -5.2630   -0.5886 C.ar      1 UNK        -0.1150 
     13 C9         15.3568   -2.2699   -1.8111 C.ar      1 UNK        -0.1150 
     14 C10        15.9115   -2.6866   -3.0438 C.ar      1 UNK        -0.1150 
     15 C11        16.3923   -1.7309   -3.9571 C.ar      1 UNK        -0.1150 
     16 C12        16.3151   -0.3584   -3.6589 C.ar      1 UNK        -0.1150 
     17 C13        15.7903    0.0946   -2.4312 C.ar      1 UNK         0.0000 
     18 C14        15.7052    1.5402   -2.1087 C.ar      1 UNK         0.2920 
     19 C15        15.6969    1.9913   -0.7745 C.ar      1 UNK        -0.4470 
     20 C16        15.5589    3.3571   -0.4899 C.ar      1 UNK         0.4730 
     21 N4         15.4374    4.2916   -1.4442 N.ar      1 UNK        -0.6780 
     22 C17        15.4666    3.8814   -2.7239 C.ar      1 UNK         0.4730 
     23 C18        15.5980    2.5333   -3.1039 C.ar      1 UNK        -0.4470 
     24 C19        15.3231   -0.8816   -1.5215 C.ar      1 UNK        -0.1150 
     25 C20        13.2648   -3.0328   -0.6326 C.2       1 UNK         0.6225 
     26 O1         12.3816   -3.0977   -1.4960 O.2       1 UNK        -0.5000 
     27 H1         11.5213   -1.2620    1.1331 H         1 UNK         0.0600 
     28 H2         10.9140   -2.8804    0.7766 H         1 UNK         0.0600 
     29 H3         11.6583   -2.5490    2.3412 H         1 UNK         0.0600 
     30 H4         15.3295   -2.3605    3.0509 H         1 UNK         0.4600 
     31 H5         16.1982   -2.9235    0.8445 H         1 UNK         0.3451 
     32 H6         13.3388   -5.3138   -2.1640 H         1 UNK         0.1150 
     33 H7         13.9699   -7.6687   -2.4605 H         1 UNK         0.1150 
     34 H8         16.1378   -8.5093   -1.5608 H         1 UNK         0.1150 
     35 H9         17.6820   -6.9557   -0.4103 H         1 UNK         0.1150 
     36 H10        17.0246   -4.6267   -0.0348 H         1 UNK         0.1150 
     37 H11        15.9759   -3.7327   -3.3123 H         1 UNK         0.1150 
     38 H12        16.8183   -2.0431   -4.9001 H         1 UNK         0.1150 
     39 H13        16.6698    0.3519   -4.3887 H         1 UNK         0.1150 
     40 H14        15.8060    1.3012    0.0416 H         1 UNK         0.1550 
     41 H15        15.5470    3.7065    0.5323 H         1 UNK         0.0120 
     42 H16        15.3627    4.6606   -3.4623 H         1 UNK         0.0120 
     43 H17        15.5837    2.2733   -4.1516 H         1 UNK         0.1550 
     44 H18        14.8941   -0.5486   -0.5886 H         1 UNK         0.1150 
     45 H19        13.6449   -2.0632    3.3051 H         1 UNK         0.4600 
@<TRIPOS>BOND
     1    1    2 1    
     2    1   27 1    
     3    1   28 1    
     4    1   29 1    
     5    2    3 1    
     6    2   25 am   BACKBONE|DICT|INTERRES
     7    3    4 ar   
     8    3    5 ar   
     9    4   30 1    
    10    4   45 1    
    11    5    6 1    
    12    5   31 1    
    13    6    7 1    
    14    6   13 1    
    15    6   25 1    
    16    7    8 ar   
    17    7   12 ar   
    18    8    9 ar   
    19    8   32 1    
    20    9   10 ar   
    21    9   33 1    
    22   10   11 ar   
    23   10   34 1    
    24   11   12 ar   
    25   11   35 1    
    26   12   36 1    
    27   13   14 ar   
    28   13   24 ar   
    29   14   15 ar   
    30   14   37 1    
    31   15   16 ar   
    32   15   38 1    
    33   16   17 ar   
    34   16   39 1    
    35   17   18 1    
    36   17   24 ar   
    37   18   19 ar   
    38   18   23 ar   
    39   19   20 ar   
    40   19   40 1    
    41   20   21 ar   
    42   20   41 1    
    43   21   22 ar   
    44   22   23 ar   
    45   22   42 1    
    46   23   43 1    
    47   24   44 1    
    48   25   26 2    
@<TRIPOS>SUBSTRUCTURE
     1 UNK         1 GROUP             0       ****    0 ROOT    
