@<TRIPOS>MOLECULE
CAT-13h
46   49    1
SMALL
USER_CHARGES


@<TRIPOS>ATOM
      1 C1         11.7684   -1.9959    1.1324 C.3       1 UNK        -0.0090 
      2 N1         13.0773   -2.4188    0.6254 N.am      1 UNK        -0.0184 
      3 C20        14.2291   -2.5040    1.3137 C.cat     1 UNK         0.5687 
      4 N2         14.3929   -2.2698    2.6191 N.pl3     1 UNK        -0.9138 
      5 N3         15.2451   -2.8865    0.5393 N.pl3     1 UNK        -0.5282 
      6 C2         14.8082   -3.1964   -0.8186 C.3       1 UNK         0.4480 
      7 C3         15.4852   -2.1794   -1.7990 C.ar      1 UNK        -0.1150 
      8 C4         16.1731   -2.5185   -2.9932 C.ar      1 UNK        -0.1150 
      9 C5         16.6532   -1.5251   -3.8618 C.ar      1 UNK        -0.1150 
     10 C6         16.4491   -0.1688   -3.5713 C.ar      1 UNK        -0.1150 
     11 C7         15.8247    0.2326   -2.3765 C.ar      1 UNK         0.0000 
     12 C8         15.5945    1.6726   -2.0932 C.ar      1 UNK         0.0000 
     13 C9         15.3339    2.5855   -3.1442 C.ar      1 UNK        -0.1150 
     14 C10        15.0299    3.9370   -2.8820 C.ar      1 UNK        -0.1150 
     15 C11        15.0030    4.4103   -1.5608 C.ar      1 UNK        -0.1150 
     16 C12        15.3015    3.5355   -0.5053 C.ar      1 UNK         0.1800 
     17 CL1        15.2995    4.1388    1.1106 Cl        1 UNK        -0.1800 
     18 C13        15.5922    2.1813   -0.7728 C.ar      1 UNK        -0.1150 
     19 C14        15.3791   -0.7861   -1.4997 C.ar      1 UNK        -0.1150 
     20 C15        14.9144   -4.7626   -0.9856 C.3       1 UNK         0.0000 
     21 C16        14.1547   -5.5339    0.1086 C.3       1 UNK        -0.1800 
     22 C17        14.8874   -5.4504   -2.3330 C.3       1 UNK        -0.1200 
     23 C18        16.1530   -5.4449   -1.5196 C.3       1 UNK        -0.1200 
     24 C19        13.3202   -2.8066   -0.7246 C.2       1 UNK         0.6225 
     25 O1         12.4613   -2.8390   -1.6128 O.2       1 UNK        -0.5000 
     26 H1         11.6694   -2.2266    2.1924 H         1 UNK         0.0600 
     27 H2         11.6575   -0.9215    0.9898 H         1 UNK         0.0600 
     28 H3         10.9559   -2.4934    0.6024 H         1 UNK         0.0600 
     29 H4         13.6578   -1.9498    3.2470 H         1 UNK         0.4600 
     30 H5         16.2187   -2.9494    0.8388 H         1 UNK         0.3451 
     31 H6         16.3613   -3.5214   -3.3226 H         1 UNK         0.1150 
     32 H7         17.1603   -1.8031   -4.7762 H         1 UNK         0.1150 
     33 H8         16.7780    0.5693   -4.2846 H         1 UNK         0.1150 
     34 H9         15.3170    2.2428   -4.1689 H         1 UNK         0.1150 
     35 H10        14.7867    4.6128   -3.6877 H         1 UNK         0.1150 
     36 H11        14.7514    5.4411   -1.3547 H         1 UNK         0.1150 
     37 H12        15.8182    1.5269    0.0513 H         1 UNK         0.1150 
     38 H13        14.8801   -0.4710   -0.5956 H         1 UNK         0.1150 
     39 H14        14.4413   -5.2246    1.1136 H         1 UNK         0.0600 
     40 H15        13.0753   -5.4266   -0.0014 H         1 UNK         0.0600 
     41 H16        14.3669   -6.6018    0.0392 H         1 UNK         0.0600 
     42 H17        14.3561   -6.3971   -2.4158 H         1 UNK         0.0600 
     43 H18        14.8225   -4.8302   -3.2131 H         1 UNK         0.0600 
     44 H19        16.9645   -4.8200   -1.8430 H         1 UNK         0.0600 
     45 H20        16.4620   -6.3805   -1.0573 H         1 UNK         0.0600 
     46 H21        15.3286   -2.3341    3.0225 H         1 UNK         0.4600 
@<TRIPOS>BOND
     1    1    2 1    
     2    1   26 1    
     3    1   27 1    
     4    1   28 1    
     5    2    3 1    
     6    2   24 am   BACKBONE|DICT|INTERRES
     7    3    4 ar   
     8    3    5 ar   
     9    4   29 1    
    10    4   46 1    
    11    5    6 1    
    12    5   30 1    
    13    6    7 1    
    14    6   20 1    
    15    6   24 1    
    16    7    8 ar   
    17    7   19 ar   
    18    8    9 ar   
    19    8   31 1    
    20    9   10 ar   
    21    9   32 1    
    22   10   11 ar   
    23   10   33 1    
    24   11   12 1    
    25   11   19 ar   
    26   12   13 ar   
    27   12   18 ar   
    28   13   14 ar   
    29   13   34 1    
    30   14   15 ar   
    31   14   35 1    
    32   15   16 ar   
    33   15   36 1    
    34   16   17 1    
    35   16   18 ar   
    36   18   37 1    
    37   19   38 1    
    38   20   21 1    
    39   20   22 1    
    40   20   23 1    
    41   21   39 1    
    42   21   40 1    
    43   21   41 1    
    44   22   23 1    
    45   22   42 1    
    46   22   43 1    
    47   23   44 1    
    48   23   45 1    
    49   24   25 2    
@<TRIPOS>SUBSTRUCTURE
     1 UNK         1 GROUP             0       ****    0 ROOT    
