@<TRIPOS>MOLECULE
CAT-13n
44   47    1
SMALL
USER_CHARGES


@<TRIPOS>ATOM
      1 C1         11.7505   -2.1054    1.1746 C.3       1 UNK        -0.0090 
      2 N1         13.0754   -2.4192    0.6266 N.am      1 UNK        -0.0184 
      3 C20        14.2390   -2.4823    1.2955 C.cat     1 UNK         0.5687 
      4 N2         14.4006   -2.3325    2.6153 N.pl3     1 UNK        -0.9138 
      5 N3         15.2678   -2.7183    0.4810 N.pl3     1 UNK        -0.5282 
      6 C2         14.8335   -2.9708   -0.8899 C.3       1 UNK         0.5630 
      7 C3         15.4350   -1.9353   -1.8793 C.ar      1 UNK        -0.1150 
      8 C4         15.9253   -2.2767   -3.1639 C.ar      1 UNK        -0.1150 
      9 C5         16.4040   -1.2874   -4.0316 C.ar      1 UNK        -0.1150 
     10 C6         16.3188    0.0686   -3.6777 C.ar      1 UNK        -0.1150 
     11 C7         15.8043    0.4637   -2.4251 C.ar      1 UNK         0.0000 
     12 C8         15.5944    1.8953   -2.0972 C.ar      1 UNK         0.0000 
     13 C9         15.2922    2.8269   -3.1186 C.ar      1 UNK        -0.1150 
     14 C10        14.9797    4.1676   -2.8198 C.ar      1 UNK        -0.1150 
     15 C11        14.9709    4.6063   -1.4854 C.ar      1 UNK        -0.1150 
     16 C12        15.3020    3.7099   -0.4571 C.ar      1 UNK         0.1800 
     17 CL1        15.2993    4.2576    1.1787 Cl        1 UNK        -0.1800 
     18 C13        15.6141    2.3700   -0.7636 C.ar      1 UNK        -0.1150 
     19 C14        15.4167   -0.5574   -1.5263 C.ar      1 UNK        -0.1150 
     20 C15        15.0325   -4.4912   -1.1330 C.ar      1 UNK         0.7270 
     21 N4         14.1933   -5.3344   -0.5177 N.ar      1 UNK        -0.8390 
     22 C16        14.3980   -6.6537   -0.6631 C.ar      1 UNK         0.6530 
     23 C17        15.4737   -7.1474   -1.4002 C.ar      1 UNK        -0.6890 
     24 C18        16.3282   -6.1963   -1.9576 C.ar      1 UNK         0.6530 
     25 N5         16.1149   -4.8884   -1.7939 N.ar      1 UNK        -0.8390 
     26 C19        13.3292   -2.6538   -0.7567 C.2       1 UNK         0.6225 
     27 O1         12.4696   -2.5729   -1.6463 O.2       1 UNK        -0.5000 
     28 H1         10.9706   -2.6750    0.6661 H         1 UNK         0.0600 
     29 H2         11.6995   -2.3376    2.2387 H         1 UNK         0.0600 
     30 H3         11.5418   -1.0440    1.0335 H         1 UNK         0.0600 
     31 H4         15.3413   -2.3802    3.0106 H         1 UNK         0.4600 
     32 H5         16.2384   -2.8277    0.7732 H         1 UNK         0.3451 
     33 H6         15.9512   -3.2887   -3.5363 H         1 UNK         0.1150 
     34 H7         16.8058   -1.5771   -4.9912 H         1 UNK         0.1150 
     35 H8         16.6347    0.8051   -4.4004 H         1 UNK         0.1150 
     36 H9         15.2450    2.5045   -4.1481 H         1 UNK         0.1150 
     37 H10        14.7178    4.8557   -3.6102 H         1 UNK         0.1150 
     38 H11        14.7085    5.6275   -1.2482 H         1 UNK         0.1150 
     39 H12        15.8539    1.7016    0.0459 H         1 UNK         0.1150 
     40 H13        15.0131   -0.2646   -0.5696 H         1 UNK         0.1150 
     41 H14        13.6949   -7.3190   -0.1836 H         1 UNK         0.0110 
     42 H15        15.6326   -8.2070   -1.5234 H         1 UNK         0.1970 
     43 H16        17.1962   -6.4808   -2.5297 H         1 UNK         0.0110 
     44 H17        13.6599   -2.0568    3.2578 H         1 UNK         0.4600 
@<TRIPOS>BOND
     1    1    2 1    
     2    1   28 1    
     3    1   29 1    
     4    1   30 1    
     5    2    3 1    
     6    2   26 am   BACKBONE|DICT|INTERRES
     7    3    4 ar   
     8    3    5 ar   
     9    4   31 1    
    10    4   44 1    
    11    5    6 1    
    12    5   32 1    
    13    6    7 1    
    14    6   20 1    
    15    6   26 1    
    16    7    8 ar   
    17    7   19 ar   
    18    8    9 ar   
    19    8   33 1    
    20    9   10 ar   
    21    9   34 1    
    22   10   11 ar   
    23   10   35 1    
    24   11   12 1    
    25   11   19 ar   
    26   12   13 ar   
    27   12   18 ar   
    28   13   14 ar   
    29   13   36 1    
    30   14   15 ar   
    31   14   37 1    
    32   15   16 ar   
    33   15   38 1    
    34   16   17 1    
    35   16   18 ar   
    36   18   39 1    
    37   19   40 1    
    38   20   21 ar   
    39   20   25 ar   
    40   21   22 ar   
    41   22   23 ar   
    42   22   41 1    
    43   23   24 ar   
    44   23   42 1    
    45   24   25 ar   
    46   24   43 1    
    47   26   27 2    
@<TRIPOS>SUBSTRUCTURE
     1 UNK         1 GROUP             0       ****    0 ROOT    
