@<TRIPOS>MOLECULE
CAT-4d
53   56    1
SMALL
USER_CHARGES


@<TRIPOS>ATOM
      1 C1         15.3108    5.3150    2.5947 C.3       1 UNK        -0.1800 
      2 C24        14.9695    5.0166    1.1353 C.3       1 UNK         0.1400 
      3 O1         15.4867    3.7530    0.7556 O.3       1 UNK        -0.2850 
      4 C2         15.3578    3.3823   -0.5664 C.ar      1 UNK         0.0850 
      5 C3         14.9827    4.2577   -1.6137 C.ar      1 UNK        -0.1150 
      6 C4         14.9085    3.7845   -2.9347 C.ar      1 UNK        -0.1150 
      7 C5         15.1871    2.4352   -3.2242 C.ar      1 UNK        -0.1150 
      8 C6         15.5189    1.5300   -2.1923 C.ar      1 UNK         0.0000 
      9 C7         15.7100    0.0902   -2.4691 C.ar      1 UNK         0.0000 
     10 C8         16.2931   -0.3588   -3.6707 C.ar      1 UNK        -0.1150 
     11 C9         16.4451   -1.7318   -3.9338 C.ar      1 UNK        -0.1150 
     12 C10        15.9768   -2.6888   -3.0146 C.ar      1 UNK        -0.1150 
     13 C11        15.3665   -2.2720   -1.8078 C.ar      1 UNK        -0.1150 
     14 C12        14.7938   -3.2738   -0.7900 C.3       1 UNK         0.5630 
     15 C13        15.1445   -4.7550   -1.0654 C.ar      1 UNK        -0.1150 
     16 C14        14.3023   -5.6423   -1.7785 C.ar      1 UNK        -0.1150 
     17 C15        14.6606   -6.9934   -1.9603 C.ar      1 UNK        -0.1150 
     18 C16        15.8808   -7.4748   -1.4583 C.ar      1 UNK        -0.1150 
     19 C17        16.7449   -6.6035   -0.7847 C.ar      1 UNK        -0.1150 
     20 C18        16.3663   -5.2668   -0.5791 C.ar      1 UNK        -0.1150 
     21 N1         15.2242   -2.9268    0.5660 N.pl3     1 UNK        -0.5282 
     22 C19        14.2063   -2.6297    1.3714 C.cat     1 UNK         0.5687 
     23 N2         14.3866   -2.3466    2.6644 N.pl3     1 UNK        -0.9138 
     24 N3         13.0337   -2.6641    0.7225 N.am      1 UNK        -0.0184 
     25 C20        11.7158   -2.3156    1.2686 C.3       1 UNK        -0.0090 
     26 C21        13.2730   -3.0392   -0.6331 C.2       1 UNK         0.6225 
     27 O2         12.3895   -3.1129   -1.4956 O.2       1 UNK        -0.5000 
     28 C22        15.2700   -0.8819   -1.5451 C.ar      1 UNK        -0.1150 
     29 C23        15.6147    2.0341   -0.8762 C.ar      1 UNK        -0.1150 
     30 H1         14.9231    6.2866    2.8965 H         1 UNK         0.0600 
     31 H2         14.8805    4.5681    3.2559 H         1 UNK         0.0600 
     32 H3         16.3871    5.3163    2.7612 H         1 UNK         0.0600 
     33 H4         13.8916    5.0226    0.9896 H         1 UNK         0.0300 
     34 H5         15.3901    5.8038    0.5183 H         1 UNK         0.0300 
     35 H6         14.7479    5.2966   -1.4414 H         1 UNK         0.1150 
     36 H7         14.6159    4.4614   -3.7233 H         1 UNK         0.1150 
     37 H8         15.0996    2.0870   -4.2435 H         1 UNK         0.1150 
     38 H9         16.6339    0.3564   -4.4035 H         1 UNK         0.1150 
     39 H10        16.9147   -2.0429   -4.8560 H         1 UNK         0.1150 
     40 H11        16.0919   -3.7359   -3.2602 H         1 UNK         0.1150 
     41 H12        13.3612   -5.3121   -2.1813 H         1 UNK         0.1150 
     42 H13        13.9960   -7.6656   -2.4822 H         1 UNK         0.1150 
     43 H14        16.1584   -8.5082   -1.5702 H         1 UNK         0.1150 
     44 H15        17.6914   -6.9583   -0.4009 H         1 UNK         0.1150 
     45 H16        17.0280   -4.6320   -0.0186 H         1 UNK         0.1150 
     46 H17        16.2050   -2.9147    0.8451 H         1 UNK         0.3451 
     47 H18        13.6481   -2.0490    3.2996 H         1 UNK         0.4600 
     48 H19        10.9192   -2.8646    0.7659 H         1 UNK         0.0600 
     49 H20        11.6611   -2.5397    2.3334 H         1 UNK         0.0600 
     50 H21        11.5357   -1.2504    1.1266 H         1 UNK         0.0600 
     51 H22        14.8040   -0.5415   -0.6317 H         1 UNK         0.1150 
     52 H23        15.8747    1.3712   -0.0684 H         1 UNK         0.1150 
     53 H24        15.3329   -2.3473    3.0483 H         1 UNK         0.4600 
@<TRIPOS>BOND
     1    1    2 1    
     2    1   30 1    
     3    1   31 1    
     4    1   32 1    
     5    2    3 1    
     6    2   33 1    
     7    2   34 1    
     8    3    4 1    
     9    4    5 ar   
    10    4   29 ar   
    11    5    6 ar   
    12    5   35 1    
    13    6    7 ar   
    14    6   36 1    
    15    7    8 ar   
    16    7   37 1    
    17    8    9 1    
    18    8   29 ar   
    19    9   10 ar   
    20    9   28 ar   
    21   10   11 ar   
    22   10   38 1    
    23   11   12 ar   
    24   11   39 1    
    25   12   13 ar   
    26   12   40 1    
    27   13   14 1    
    28   13   28 ar   
    29   14   15 1    
    30   14   21 1    
    31   14   26 1    
    32   15   16 ar   
    33   15   20 ar   
    34   16   17 ar   
    35   16   41 1    
    36   17   18 ar   
    37   17   42 1    
    38   18   19 ar   
    39   18   43 1    
    40   19   20 ar   
    41   19   44 1    
    42   20   45 1    
    43   21   22 ar   
    44   21   46 1    
    45   22   23 ar   
    46   22   24 1    
    47   23   47 1    
    48   23   53 1    
    49   24   25 1    
    50   24   26 am   BACKBONE|DICT|INTERRES
    51   25   48 1    
    52   25   49 1    
    53   25   50 1    
    54   26   27 2    
    55   28   51 1    
    56   29   52 1    
@<TRIPOS>SUBSTRUCTURE
     1 UNK         1 GROUP             0       ****    0 ROOT    
