@<TRIPOS>MOLECULE
CAT-17i
45   48    1
SMALL
USER_CHARGES


@<TRIPOS>ATOM
      1 C1         15.2932    4.2915    1.0147 C.3       1 UNK        -0.0170 
      2 C19        15.2616    3.7480   -0.3995 C.ar      1 UNK        -0.4550 
      3 C2         14.9085    4.5739   -1.4751 C.ar      1 UNK         0.4730 
      4 N1         14.8944    4.1495   -2.7538 N.ar      1 UNK        -0.6780 
      5 C3         15.2063    2.8612   -2.9971 C.ar      1 UNK         0.4730 
      6 C4         15.5301    1.9161   -2.0030 C.ar      1 UNK        -0.2920 
      7 C5         15.7496    0.4844   -2.3447 C.ar      1 UNK         0.0000 
      8 C6         16.2883    0.1102   -3.5962 C.ar      1 UNK        -0.1150 
      9 C7         16.4392   -1.2422   -3.9406 C.ar      1 UNK        -0.1150 
     10 C8         15.9908   -2.2528   -3.0810 C.ar      1 UNK        -0.1150 
     11 C9         15.4339   -1.9362   -1.8222 C.ar      1 UNK        -0.1150 
     12 C10        14.8689   -2.9894   -0.8318 C.3       1 UNK         0.4480 
     13 C11        15.1312   -4.5068   -0.9958 C.3       1 UNK        -0.0600 
     14 C12        14.8281   -5.2744   -2.2582 C.3       1 UNK        -0.1200 
     15 C13        16.2398   -5.2146   -1.7420 C.3       1 UNK        -0.1200 
     16 N2         15.2808   -2.6745    0.5323 N.pl3     1 UNK        -0.5282 
     17 C14        14.2359   -2.5141    1.3440 C.cat     1 UNK         0.5687 
     18 N3         14.3825   -2.3702    2.6646 N.pl3     1 UNK        -0.9138 
     19 N4         13.0741   -2.5549    0.6745 N.am      1 UNK        -0.0184 
     20 C15        11.7278   -2.4944    1.2586 C.3       1 UNK        -0.0090 
     21 C16        13.3510   -2.7948   -0.7027 C.2       1 UNK         0.6225 
     22 O1         12.4937   -2.8958   -1.5869 O.2       1 UNK        -0.5000 
     23 C17        15.3607   -0.5585   -1.4665 C.ar      1 UNK        -0.1150 
     24 C18        15.5842    2.4020   -0.6755 C.ar      1 UNK         0.2270 
     25 H1         14.4087    3.9655    1.5522 H         1 UNK         0.0600 
     26 H2         16.1711    3.9455    1.5624 H         1 UNK         0.0600 
     27 H3         15.3062    5.3818    1.0335 H         1 UNK         0.0600 
     28 H4         14.6629    5.6160   -1.3152 H         1 UNK         0.0120 
     29 H5         15.1107    2.5630   -4.0300 H         1 UNK         0.0120 
     30 H6         16.5894    0.8517   -4.3192 H         1 UNK         0.1150 
     31 H7         16.8753   -1.5226   -4.8866 H         1 UNK         0.1150 
     32 H8         16.0871   -3.2506   -3.4660 H         1 UNK         0.1150 
     33 H9         14.8189   -5.0590   -0.1094 H         1 UNK         0.0600 
     34 H10        14.2625   -6.1991   -2.1472 H         1 UNK         0.0600 
     35 H11        14.5937   -4.6809   -3.1257 H         1 UNK         0.0600 
     36 H12        16.9418   -4.6586   -2.3398 H         1 UNK         0.0600 
     37 H13        16.6559   -6.1052   -1.2662 H         1 UNK         0.0600 
     38 H14        16.2575   -2.7098    0.8299 H         1 UNK         0.3451 
     39 H15        13.6314   -2.1095    3.3027 H         1 UNK         0.4600 
     40 H16        11.0150   -2.0181    0.5837 H         1 UNK         0.0600 
     41 H17        11.3726   -3.5009    1.4847 H         1 UNK         0.0600 
     42 H18        11.7558   -1.9447    2.1954 H         1 UNK         0.0600 
     43 H19        14.9119   -0.3026   -0.5173 H         1 UNK         0.1150 
     44 H20        15.8494    1.7412    0.1319 H         1 UNK         0.0650 
     45 H21        15.3265   -2.3620    3.0533 H         1 UNK         0.4600 
@<TRIPOS>BOND
     1    1    2 1    
     2    1   25 1    
     3    1   26 1    
     4    1   27 1    
     5    2    3 ar   
     6    2   24 ar   
     7    3    4 ar   
     8    3   28 1    
     9    4    5 ar   
    10    5    6 ar   
    11    5   29 1    
    12    6    7 1    
    13    6   24 ar   
    14    7    8 ar   
    15    7   23 ar   
    16    8    9 ar   
    17    8   30 1    
    18    9   10 ar   
    19    9   31 1    
    20   10   11 ar   
    21   10   32 1    
    22   11   12 1    
    23   11   23 ar   
    24   12   13 1    
    25   12   16 1    
    26   12   21 1    
    27   13   14 1    
    28   13   15 1    
    29   13   33 1    
    30   14   15 1    
    31   14   34 1    
    32   14   35 1    
    33   15   36 1    
    34   15   37 1    
    35   16   17 ar   
    36   16   38 1    
    37   17   18 ar   
    38   17   19 1    
    39   18   39 1    
    40   18   45 1    
    41   19   20 1    
    42   19   21 am   BACKBONE|DICT|INTERRES
    43   20   40 1    
    44   20   41 1    
    45   20   42 1    
    46   21   22 2    
    47   23   43 1    
    48   24   44 1    
@<TRIPOS>SUBSTRUCTURE
     1 UNK         1 GROUP             0       ****    0 ROOT    
