@<TRIPOS>MOLECULE
CAT-4o
45   48    1
SMALL
USER_CHARGES


@<TRIPOS>ATOM
      1 C1         11.7084   -2.3338    1.2794 C.3       1 UNK        -0.0090 
      2 N1         13.0266   -2.6810    0.7326 N.am      1 UNK        -0.0184 
      3 C21        14.1992   -2.6485    1.3818 C.cat     1 UNK         0.5687 
      4 N2         14.3805   -2.3629    2.6740 N.pl3     1 UNK        -0.9138 
      5 N3         15.2171   -2.9463    0.5767 N.pl3     1 UNK        -0.5282 
      6 C2         14.7859   -3.2915   -0.7797 C.3       1 UNK         0.5630 
      7 C3         15.1324   -4.7732   -1.0532 C.ar      1 UNK        -0.1150 
      8 C4         16.3613   -5.2807   -0.5804 C.ar      1 UNK        -0.1150 
      9 C5         16.7387   -6.6176   -0.7849 C.ar      1 UNK        -0.1150 
     10 C6         15.8669   -7.4924   -1.4441 C.ar      1 UNK        -0.1150 
     11 C7         14.6403   -7.0146   -1.9346 C.ar      1 UNK        -0.1150 
     12 C8         14.2822   -5.6634   -1.7534 C.ar      1 UNK        -0.1150 
     13 C9         15.3657   -2.2949   -1.7994 C.ar      1 UNK        -0.1150 
     14 C10        15.9428   -2.7229   -3.0177 C.ar      1 UNK        -0.1150 
     15 C11        16.4289   -1.7756   -3.9354 C.ar      1 UNK        -0.1150 
     16 C12        16.3313   -0.4018   -3.6588 C.ar      1 UNK        -0.1150 
     17 C13        15.7806    0.0634   -2.4467 C.ar      1 UNK         0.0000 
     18 C14        15.6535    1.5125   -2.1627 C.ar      1 UNK        -0.2920 
     19 C15        15.5223    2.4731   -3.1915 C.ar      1 UNK         0.4730 
     20 N4         15.3349    3.7923   -2.9798 N.ar      1 UNK        -0.6780 
     21 C16        15.2791    4.2298   -1.7075 C.ar      1 UNK         0.4730 
     22 C17        15.4382    3.3818   -0.6010 C.ar      1 UNK        -0.0720 
     23 F1         15.3969    3.8651    0.6639 F         1 UNK        -0.2200 
     24 C18        15.6332    2.0125   -0.8425 C.ar      1 UNK         0.2270 
     25 C19        15.3159   -0.9039   -1.5258 C.ar      1 UNK        -0.1150 
     26 C20        13.2665   -3.0500   -0.6247 C.2       1 UNK         0.6225 
     27 O1         12.3849   -3.1140   -1.4898 O.2       1 UNK        -0.5000 
     28 H1         11.6546   -2.5575    2.3444 H         1 UNK         0.0600 
     29 H2         11.5253   -1.2693    1.1369 H         1 UNK         0.0600 
     30 H3         10.9127   -2.8852    0.7778 H         1 UNK         0.0600 
     31 H4         15.3266   -2.3640    3.0584 H         1 UNK         0.4600 
     32 H5         16.1979   -2.9384    0.8564 H         1 UNK         0.3451 
     33 H6         17.0279   -4.6431   -0.0286 H         1 UNK         0.1150 
     34 H7         17.6887   -6.9709   -0.4083 H         1 UNK         0.1150 
     35 H8         16.1441   -8.5259   -1.5531 H         1 UNK         0.1150 
     36 H9         13.9717   -7.6887   -2.4493 H         1 UNK         0.1150 
     37 H10        13.3373   -5.3355   -2.1499 H         1 UNK         0.1150 
     38 H11        16.0205   -3.7712   -3.2733 H         1 UNK         0.1150 
     39 H12        16.8708   -2.0939   -4.8684 H         1 UNK         0.1150 
     40 H13        16.6871    0.2931   -4.4026 H         1 UNK         0.1150 
     41 H14        15.5278    2.1752   -4.2289 H         1 UNK         0.0120 
     42 H15        15.1001    5.2853   -1.5665 H         1 UNK         0.0120 
     43 H16        15.7726    1.3513   -0.0059 H         1 UNK         0.0650 
     44 H17        14.8706   -0.5694   -0.6006 H         1 UNK         0.1150 
     45 H18        13.6417   -2.0667    3.3098 H         1 UNK         0.4600 
@<TRIPOS>BOND
     1    1    2 1    
     2    1   28 1    
     3    1   29 1    
     4    1   30 1    
     5    2    3 1    
     6    2   26 am   BACKBONE|DICT|INTERRES
     7    3    4 ar   
     8    3    5 ar   
     9    4   31 1    
    10    4   45 1    
    11    5    6 1    
    12    5   32 1    
    13    6    7 1    
    14    6   13 1    
    15    6   26 1    
    16    7    8 ar   
    17    7   12 ar   
    18    8    9 ar   
    19    8   33 1    
    20    9   10 ar   
    21    9   34 1    
    22   10   11 ar   
    23   10   35 1    
    24   11   12 ar   
    25   11   36 1    
    26   12   37 1    
    27   13   14 ar   
    28   13   25 ar   
    29   14   15 ar   
    30   14   38 1    
    31   15   16 ar   
    32   15   39 1    
    33   16   17 ar   
    34   16   40 1    
    35   17   18 1    
    36   17   25 ar   
    37   18   19 ar   
    38   18   24 ar   
    39   19   20 ar   
    40   19   41 1    
    41   20   21 ar   
    42   21   22 ar   
    43   21   42 1    
    44   22   23 1    
    45   22   24 ar   
    46   24   43 1    
    47   25   44 1    
    48   26   27 2    
@<TRIPOS>SUBSTRUCTURE
     1 UNK         1 GROUP             0       ****    0 ROOT    
