@<TRIPOS>MOLECULE
CAT-13j
45   48    1
SMALL
USER_CHARGES


@<TRIPOS>ATOM
      1 C1         11.6961   -2.2645    1.2649 C.3       1 UNK        -0.0090 
      2 N1         13.0215   -2.5154    0.6888 N.am      1 UNK        -0.0184 
      3 C21        14.1987   -2.5219    1.3336 C.cat     1 UNK         0.5687 
      4 N2         14.3751   -2.3542    2.6485 N.pl3     1 UNK        -0.9138 
      5 N3         15.2238   -2.7253    0.5042 N.pl3     1 UNK        -0.5282 
      6 C2         14.7664   -3.0195   -0.8502 C.3       1 UNK         0.5630 
      7 C3         15.3113   -1.9904   -1.8759 C.ar      1 UNK        -0.1150 
      8 C4         15.6769   -2.3426   -3.1986 C.ar      1 UNK        -0.1150 
      9 C5         16.1753   -1.3675   -4.0760 C.ar      1 UNK        -0.1150 
     10 C6         16.1926   -0.0120   -3.7018 C.ar      1 UNK        -0.1150 
     11 C7         15.7284    0.3995   -2.4340 C.ar      1 UNK         0.0000 
     12 C8         15.5348    1.8413   -2.1135 C.ar      1 UNK         0.0000 
     13 C9         15.2021    2.7617   -3.1388 C.ar      1 UNK        -0.1150 
     14 C10        14.8789    4.1032   -2.8499 C.ar      1 UNK        -0.1150 
     15 C11        14.8908    4.5603   -1.5223 C.ar      1 UNK        -0.1150 
     16 C12        15.2551    3.6784   -0.4913 C.ar      1 UNK         0.1800 
     17 CL1        15.2846    4.2505    1.1365 Cl        1 UNK        -0.1800 
     18 C13        15.5764    2.3370   -0.7867 C.ar      1 UNK        -0.1150 
     19 C14        15.3578   -0.6128   -1.5167 C.ar      1 UNK        -0.1150 
     20 C15        15.0379   -4.5318   -1.0582 C.ar      1 UNK         0.3700 
     21 C16        16.1911   -4.9954   -1.7182 C.ar      1 UNK        -0.4470 
     22 C17        16.4400   -6.3687   -1.8207 C.ar      1 UNK         0.2270 
     23 C18        15.5365   -7.2607   -1.2303 C.ar      1 UNK        -0.4470 
     24 C19        14.4411   -6.7307   -0.5352 C.ar      1 UNK         0.4730 
     25 N4         14.2062   -5.4075   -0.4355 N.ar      1 UNK        -0.6780 
     26 C20        13.2558   -2.7592   -0.6949 C.2       1 UNK         0.6225 
     27 O1         12.3797   -2.7353   -1.5715 O.2       1 UNK        -0.5000 
     28 H1         11.6759   -2.5192    2.3233 H         1 UNK         0.0600 
     29 H2         11.4474   -1.2118    1.1456 H         1 UNK         0.0600 
     30 H3         10.9325   -2.8547    0.7588 H         1 UNK         0.0600 
     31 H4         15.3191   -2.3803    3.0344 H         1 UNK         0.4600 
     32 H5         16.1999   -2.8167    0.7852 H         1 UNK         0.3451 
     33 H6         15.6011   -3.3569   -3.5737 H         1 UNK         0.1150 
     34 H7         16.5117   -1.6644   -5.0572 H         1 UNK         0.1150 
     35 H8         16.5310    0.7127   -4.4277 H         1 UNK         0.1150 
     36 H9         15.1296    2.4285   -4.1639 H         1 UNK         0.1150 
     37 H10        14.5891    4.7792   -3.6409 H         1 UNK         0.1150 
     38 H11        14.6215    5.5821   -1.2918 H         1 UNK         0.1150 
     39 H12        15.8355    1.6817    0.0279 H         1 UNK         0.1150 
     40 H13        15.0131   -0.3137   -0.5390 H         1 UNK         0.1150 
     41 H14        16.8852   -4.2982   -2.1487 H         1 UNK         0.1550 
     42 H15        17.3214   -6.7175   -2.3297 H         1 UNK         0.0650 
     43 H16        15.6892   -8.3285   -1.2778 H         1 UNK         0.1550 
     44 H17        13.7478   -7.3825   -0.0239 H         1 UNK         0.0120 
     45 H18        13.6328   -2.0835    3.2913 H         1 UNK         0.4600 
@<TRIPOS>BOND
     1    1    2 1    
     2    1   28 1    
     3    1   29 1    
     4    1   30 1    
     5    2    3 1    
     6    2   26 am   BACKBONE|DICT|INTERRES
     7    3    4 ar   
     8    3    5 ar   
     9    4   31 1    
    10    4   45 1    
    11    5    6 1    
    12    5   32 1    
    13    6    7 1    
    14    6   20 1    
    15    6   26 1    
    16    7    8 ar   
    17    7   19 ar   
    18    8    9 ar   
    19    8   33 1    
    20    9   10 ar   
    21    9   34 1    
    22   10   11 ar   
    23   10   35 1    
    24   11   12 1    
    25   11   19 ar   
    26   12   13 ar   
    27   12   18 ar   
    28   13   14 ar   
    29   13   36 1    
    30   14   15 ar   
    31   14   37 1    
    32   15   16 ar   
    33   15   38 1    
    34   16   17 1    
    35   16   18 ar   
    36   18   39 1    
    37   19   40 1    
    38   20   21 ar   
    39   20   25 ar   
    40   21   22 ar   
    41   21   41 1    
    42   22   23 ar   
    43   22   42 1    
    44   23   24 ar   
    45   23   43 1    
    46   24   25 ar   
    47   24   44 1    
    48   26   27 2    
@<TRIPOS>SUBSTRUCTURE
     1 UNK         1 GROUP             0       ****    0 ROOT    
