@<TRIPOS>MOLECULE
CAT-17a
43   46    1
SMALL
USER_CHARGES


@<TRIPOS>ATOM
      1 C1         11.7268   -2.5836    1.3295 C.3       1 UNK        -0.0090 
      2 N1         13.0531   -2.6452    0.7063 N.am      1 UNK        -0.0184 
      3 C19        14.2316   -2.5932    1.3460 C.cat     1 UNK         0.5687 
      4 N2         14.4073   -2.4121    2.6584 N.pl3     1 UNK        -0.9138 
      5 N3         15.2573   -2.7748    0.5129 N.pl3     1 UNK        -0.5282 
      6 C2         14.8116   -3.0762   -0.8432 C.3       1 UNK         0.4480 
      7 C3         15.3587   -2.0157   -1.8435 C.ar      1 UNK        -0.1150 
      8 C4         16.0195   -2.3189   -3.0601 C.ar      1 UNK        -0.1150 
      9 C5         16.4383   -1.2952   -3.9239 C.ar      1 UNK        -0.1150 
     10 C6         16.1807    0.0504   -3.6165 C.ar      1 UNK        -0.1150 
     11 C7         15.5427    0.4050   -2.4118 C.ar      1 UNK         0.0000 
     12 C8         15.2156    1.8211   -2.1137 C.ar      1 UNK         0.0000 
     13 C9         15.3567    2.3665   -0.8156 C.ar      1 UNK        -0.1150 
     14 C10        14.9849    3.7006   -0.5364 C.ar      1 UNK         0.1800 
     15 CL1        15.1555    4.3443    1.0546 Cl        1 UNK        -0.1800 
     16 C11        14.4606    4.5126   -1.5547 C.ar      1 UNK        -0.1150 
     17 C12        14.3209    3.9933   -2.8516 C.ar      1 UNK         0.1800 
     18 CL2        13.6519    4.9766   -4.0966 Cl        1 UNK        -0.1800 
     19 C13        14.7046    2.6647   -3.1281 C.ar      1 UNK        -0.1150 
     20 C14        15.1679   -0.6375   -1.5331 C.ar      1 UNK        -0.1150 
     21 C15        15.0322   -4.5979   -1.0297 C.3       1 UNK        -0.0600 
     22 C16        14.8677   -5.3412   -2.3307 C.3       1 UNK        -0.1200 
     23 C17        16.2127   -5.2990   -1.6572 C.3       1 UNK        -0.1200 
     24 C18        13.2933   -2.8878   -0.6768 C.2       1 UNK         0.6225 
     25 O1         12.4116   -2.9823   -1.5385 O.2       1 UNK        -0.5000 
     26 H1         11.4700   -3.5572    1.7452 H         1 UNK         0.0600 
     27 H2         11.7369   -1.8709    2.1445 H         1 UNK         0.0600 
     28 H3         10.9529   -2.2895    0.6209 H         1 UNK         0.0600 
     29 H4         13.6644   -2.1505    3.3042 H         1 UNK         0.4600 
     30 H5         16.2403   -2.7836    0.7874 H         1 UNK         0.3451 
     31 H6         16.2291   -3.3147   -3.3988 H         1 UNK         0.1150 
     32 H7         16.9460   -1.5531   -4.8431 H         1 UNK         0.1150 
     33 H8         16.4785    0.8091   -4.3260 H         1 UNK         0.1150 
     34 H9         15.7506    1.7585   -0.0167 H         1 UNK         0.1150 
     35 H10        14.1590    5.5304   -1.3431 H         1 UNK         0.1150 
     36 H11        14.5644    2.2798   -4.1277 H         1 UNK         0.1150 
     37 H12        14.6627   -0.3618   -0.6207 H         1 UNK         0.1150 
     38 H13        14.6222   -5.1529   -0.1846 H         1 UNK         0.0600 
     39 H14        14.3021   -6.2723   -2.3064 H         1 UNK         0.0600 
     40 H15        14.7452   -4.7530   -3.2261 H         1 UNK         0.0600 
     41 H16        16.9717   -4.7217   -2.1490 H         1 UNK         0.0600 
     42 H17        16.5741   -6.2027   -1.1702 H         1 UNK         0.0600 
     43 H18        15.3568   -2.4023    3.0357 H         1 UNK         0.4600 
@<TRIPOS>BOND
     1    1    2 1    
     2    1   26 1    
     3    1   27 1    
     4    1   28 1    
     5    2    3 1    
     6    2   24 am   BACKBONE|DICT|INTERRES
     7    3    4 ar   
     8    3    5 ar   
     9    4   29 1    
    10    4   43 1    
    11    5    6 1    
    12    5   30 1    
    13    6    7 1    
    14    6   21 1    
    15    6   24 1    
    16    7    8 ar   
    17    7   20 ar   
    18    8    9 ar   
    19    8   31 1    
    20    9   10 ar   
    21    9   32 1    
    22   10   11 ar   
    23   10   33 1    
    24   11   12 1    
    25   11   20 ar   
    26   12   13 ar   
    27   12   19 ar   
    28   13   14 ar   
    29   13   34 1    
    30   14   15 1    
    31   14   16 ar   
    32   16   17 ar   
    33   16   35 1    
    34   17   18 1    
    35   17   19 ar   
    36   19   36 1    
    37   20   37 1    
    38   21   22 1    
    39   21   23 1    
    40   21   38 1    
    41   22   23 1    
    42   22   39 1    
    43   22   40 1    
    44   23   41 1    
    45   23   42 1    
    46   24   25 2    
@<TRIPOS>SUBSTRUCTURE
     1 UNK         1 GROUP             0       ****    0 ROOT    
