@<TRIPOS>MOLECULE
CAT-17e
46   49    1
SMALL
USER_CHARGES


@<TRIPOS>ATOM
      1 C1         14.8618    4.8350    1.1620 C.3       1 UNK         0.1100 
      2 O1         15.5063    3.6190    0.8241 O.3       1 UNK        -0.3000 
      3 C19        15.5034    3.2547   -0.5041 C.ar      1 UNK        -0.1920 
      4 C2         15.3203    4.1381   -1.5911 C.ar      1 UNK         0.4730 
      5 N1         15.3573    3.7398   -2.8754 N.ar      1 UNK        -0.6780 
      6 C3         15.5484    2.4300   -3.1296 C.ar      1 UNK         0.4730 
      7 C4         15.7091    1.4388   -2.1356 C.ar      1 UNK        -0.2920 
      8 C5         15.8420   -0.0010   -2.4606 C.ar      1 UNK         0.0000 
      9 C6         16.3311   -0.4075   -3.7129 C.ar      1 UNK        -0.1150 
     10 C7         16.3915   -1.7640   -4.0583 C.ar      1 UNK        -0.1150 
     11 C8         15.9457   -2.7515   -3.1643 C.ar      1 UNK        -0.1150 
     12 C9         15.4719   -2.3986   -1.8776 C.ar      1 UNK        -0.1150 
     13 C10        14.9084   -3.4068   -0.8336 C.3       1 UNK         0.4480 
     14 C11        15.1744   -4.9292   -0.9309 C.3       1 UNK        -0.0600 
     15 C12        14.8727   -5.7780   -2.1409 C.3       1 UNK        -0.1200 
     16 C13        16.2960   -5.6354   -1.6617 C.3       1 UNK        -0.1200 
     17 N2         15.3119   -3.0245    0.5181 N.pl3     1 UNK        -0.5282 
     18 C14        14.2748   -2.7106    1.2950 C.cat     1 UNK         0.5687 
     19 N3         14.4147   -2.3941    2.5875 N.pl3     1 UNK        -0.9138 
     20 N4         13.1175   -2.7746    0.6184 N.am      1 UNK        -0.0184 
     21 C15        11.7851   -2.4926    1.1586 C.3       1 UNK        -0.0090 
     22 C16        13.3894   -3.1875   -0.7204 C.2       1 UNK         0.6225 
     23 O2         12.5284   -3.3363   -1.5934 O.2       1 UNK        -0.5000 
     24 C17        15.4440   -1.0125   -1.5544 C.ar      1 UNK        -0.1150 
     25 C18        15.7028    1.8991   -0.8055 C.ar      1 UNK         0.2270 
     26 H1         14.8380    4.9423    2.2474 H         1 UNK         0.0300 
     27 H2         15.3759    5.6992    0.7519 H         1 UNK         0.0300 
     28 H3         13.8375    4.8355    0.7946 H         1 UNK         0.0300 
     29 H4         15.1541    5.1939   -1.4430 H         1 UNK         0.0120 
     30 H5         15.5345    2.1696   -4.1770 H         1 UNK         0.0120 
     31 H6         16.6513    0.3205   -4.4416 H         1 UNK         0.1150 
     32 H7         16.7660   -2.0344   -5.0341 H         1 UNK         0.1150 
     33 H8         15.9804   -3.7597   -3.5293 H         1 UNK         0.1150 
     34 H9         14.9009   -5.4265   -0.0010 H         1 UNK         0.0600 
     35 H10        14.3799   -6.7349   -1.9832 H         1 UNK         0.0600 
     36 H11        14.5834   -5.2655   -3.0454 H         1 UNK         0.0600 
     37 H12        16.9751   -5.0800   -2.2915 H         1 UNK         0.0600 
     38 H13        16.7462   -6.4903   -1.1620 H         1 UNK         0.0600 
     39 H14        16.2886   -2.9965    0.8161 H         1 UNK         0.3451 
     40 H15        13.6579   -2.0901    3.1972 H         1 UNK         0.4600 
     41 H16        11.0202   -2.4653    0.3819 H         1 UNK         0.0600 
     42 H17        11.5052   -3.2432    1.8970 H         1 UNK         0.0600 
     43 H18        11.8047   -1.5231    1.6422 H         1 UNK         0.0600 
     44 H19        15.0485   -0.7087   -0.5980 H         1 UNK         0.1150 
     45 H20        15.8443    1.2081    0.0055 H         1 UNK         0.0650 
     46 H21        15.3520   -2.3780    2.9947 H         1 UNK         0.4600 
@<TRIPOS>BOND
     1    1    2 1    
     2    1   26 1    
     3    1   27 1    
     4    1   28 1    
     5    2    3 1    
     6    3    4 ar   
     7    3   25 ar   
     8    4    5 ar   
     9    4   29 1    
    10    5    6 ar   
    11    6    7 ar   
    12    6   30 1    
    13    7    8 1    
    14    7   25 ar   
    15    8    9 ar   
    16    8   24 ar   
    17    9   10 ar   
    18    9   31 1    
    19   10   11 ar   
    20   10   32 1    
    21   11   12 ar   
    22   11   33 1    
    23   12   13 1    
    24   12   24 ar   
    25   13   14 1    
    26   13   17 1    
    27   13   22 1    
    28   14   15 1    
    29   14   16 1    
    30   14   34 1    
    31   15   16 1    
    32   15   35 1    
    33   15   36 1    
    34   16   37 1    
    35   16   38 1    
    36   17   18 ar   
    37   17   39 1    
    38   18   19 ar   
    39   18   20 1    
    40   19   40 1    
    41   19   46 1    
    42   20   21 1    
    43   20   22 am   BACKBONE|DICT|INTERRES
    44   21   41 1    
    45   21   42 1    
    46   21   43 1    
    47   22   23 2    
    48   24   44 1    
    49   25   45 1    
@<TRIPOS>SUBSTRUCTURE
     1 UNK         1 GROUP             0       ****    0 ROOT    
