@<TRIPOS>MOLECULE
CAT-24
47   50    1
SMALL
USER_CHARGES


@<TRIPOS>ATOM
      1 C1         15.3153    5.5063    2.8950 C.3       1 UNK        -0.1800 
      2 C21        15.2763    4.6943    1.6710 C.1       1 UNK         0.0000 
      3 C2         15.2920    4.0725    0.6202 C.1       1 UNK        -0.0350 
      4 C3         15.3508    3.4487   -0.6906 C.ar      1 UNK        -0.2570 
      5 C4         15.1653    4.2390   -1.8343 C.ar      1 UNK         0.4730 
      6 N1         15.2379    3.7478   -3.0807 N.ar      1 UNK        -0.6780 
      7 C5         15.4741    2.4308   -3.2306 C.ar      1 UNK         0.4730 
      8 C6         15.6500    1.5168   -2.1649 C.ar      1 UNK        -0.2920 
      9 C7         15.8251    0.0635   -2.4272 C.ar      1 UNK         0.0000 
     10 C8         16.3445   -0.3778   -3.6611 C.ar      1 UNK        -0.1150 
     11 C9         16.4139   -1.7402   -3.9775 C.ar      1 UNK        -0.1150 
     12 C10        15.9405   -2.7037   -3.0749 C.ar      1 UNK        -0.1150 
     13 C11        15.4459   -2.3239   -1.8037 C.ar      1 UNK        -0.1150 
     14 C12        14.8513   -3.3203   -0.7684 C.3       1 UNK         0.4480 
     15 C13        15.0823   -4.8499   -0.8614 C.3       1 UNK        -0.0600 
     16 C14        14.8182   -5.7095   -2.0747 C.3       1 UNK        -0.1200 
     17 C15        16.2251   -5.5702   -1.5443 C.3       1 UNK        -0.1200 
     18 N2         15.2665   -2.9519    0.5806 N.pl3     1 UNK        -0.5282 
     19 C16        14.2391   -2.5906    1.3479 C.cat     1 UNK         0.5687 
     20 N3         14.3969   -2.2856    2.6385 N.pl3     1 UNK        -0.9138 
     21 N4         13.0817   -2.6029    0.6692 N.am      1 UNK        -0.0184 
     22 C17        11.7632   -2.2010    1.1743 C.3       1 UNK        -0.0090 
     23 C18        13.3393   -3.0536   -0.6601 C.2       1 UNK         0.6225 
     24 O1         12.4758   -3.1864   -1.5335 O.2       1 UNK        -0.5000 
     25 C19        15.4218   -0.9298   -1.5003 C.ar      1 UNK        -0.1150 
     26 C20        15.6013    2.0714   -0.8642 C.ar      1 UNK         0.2270 
     27 H1         14.7230    6.4085    2.7703 H         1 UNK         0.0600 
     28 H2         14.9101    4.9397    3.7303 H         1 UNK         0.0600 
     29 H3         16.3443    5.7817    3.1250 H         1 UNK         0.0600 
     30 H4         14.9637    5.2976   -1.7524 H         1 UNK         0.0120 
     31 H5         15.4797    2.0984   -4.2571 H         1 UNK         0.0120 
     32 H6         16.6786    0.3258   -4.4064 H         1 UNK         0.1150 
     33 H7         16.8075   -2.0384   -4.9385 H         1 UNK         0.1150 
     34 H8         15.9686   -3.7185   -3.4242 H         1 UNK         0.1150 
     35 H9         14.7743   -5.3363    0.0640 H         1 UNK         0.0600 
     36 H10        14.3147   -6.6618   -1.9195 H         1 UNK         0.0600 
     37 H11        14.5666   -5.2132   -3.0007 H         1 UNK         0.0600 
     38 H12        16.9323   -5.0170   -2.1448 H         1 UNK         0.0600 
     39 H13        16.6531   -6.4222   -1.0195 H         1 UNK         0.0600 
     40 H14        16.2430   -2.9601    0.8794 H         1 UNK         0.3451 
     41 H15        13.6498   -1.9784    3.2585 H         1 UNK         0.4600 
     42 H16        10.9579   -2.6949    0.6300 H         1 UNK         0.0600 
     43 H17        11.6593   -2.4477    2.2305 H         1 UNK         0.0600 
     44 H18        11.6439   -1.1246    1.0545 H         1 UNK         0.0600 
     45 H19        15.0153   -0.6036   -0.5544 H         1 UNK         0.1150 
     46 H20        15.7574    1.4435   -0.0039 H         1 UNK         0.0650 
     47 H21        15.3336   -2.3087    3.0440 H         1 UNK         0.4600 
@<TRIPOS>BOND
     1    1    2 1    
     2    1   27 1    
     3    1   28 1    
     4    1   29 1    
     5    2    3 3    
     6    3    4 1    
     7    4    5 ar   
     8    4   26 ar   
     9    5    6 ar   
    10    5   30 1    
    11    6    7 ar   
    12    7    8 ar   
    13    7   31 1    
    14    8    9 1    
    15    8   26 ar   
    16    9   10 ar   
    17    9   25 ar   
    18   10   11 ar   
    19   10   32 1    
    20   11   12 ar   
    21   11   33 1    
    22   12   13 ar   
    23   12   34 1    
    24   13   14 1    
    25   13   25 ar   
    26   14   15 1    
    27   14   18 1    
    28   14   23 1    
    29   15   16 1    
    30   15   17 1    
    31   15   35 1    
    32   16   17 1    
    33   16   36 1    
    34   16   37 1    
    35   17   38 1    
    36   17   39 1    
    37   18   19 ar   
    38   18   40 1    
    39   19   20 ar   
    40   19   21 1    
    41   20   41 1    
    42   20   47 1    
    43   21   22 1    
    44   21   23 am   BACKBONE|DICT|INTERRES
    45   22   42 1    
    46   22   43 1    
    47   22   44 1    
    48   23   24 2    
    49   25   45 1    
    50   26   46 1    
@<TRIPOS>SUBSTRUCTURE
     1 UNK         1 GROUP             0       ****    0 ROOT    
