@<TRIPOS>MOLECULE
CAT-4j
45   48    1
SMALL
USER_CHARGES


@<TRIPOS>ATOM
      1 C1         11.7106   -2.3098    1.2658 C.3       1 UNK        -0.0090 
      2 N1         13.0313   -2.6523    0.7225 N.am      1 UNK        -0.0184 
      3 C21        14.2010   -2.6281    1.3773 C.cat     1 UNK         0.5687 
      4 N2         14.3777   -2.3568    2.6732 N.pl3     1 UNK        -0.9138 
      5 N3         15.2217   -2.9197    0.5738 N.pl3     1 UNK        -0.5282 
      6 C2         14.7965   -3.2519   -0.7875 C.3       1 UNK         0.5630 
      7 C3         15.1409   -4.7334   -1.0690 C.ar      1 UNK        -0.1150 
      8 C4         16.3619   -5.2517   -0.5871 C.ar      1 UNK        -0.1150 
      9 C5         16.7322   -6.5909   -0.7921 C.ar      1 UNK        -0.1150 
     10 C6         15.8605   -7.4582   -1.4613 C.ar      1 UNK        -0.1150 
     11 C7         14.6405   -6.9706   -1.9577 C.ar      1 UNK        -0.1150 
     12 C8         14.2904   -5.6173   -1.7762 C.ar      1 UNK        -0.1150 
     13 C9         15.3794   -2.2443   -1.7949 C.ar      1 UNK        -0.1150 
     14 C10        15.9522   -2.6550   -3.0208 C.ar      1 UNK        -0.1150 
     15 C11        16.4340   -1.6937   -3.9273 C.ar      1 UNK        -0.1150 
     16 C12        16.3364   -0.3224   -3.6308 C.ar      1 UNK        -0.1150 
     17 C13        15.7943    0.1250   -2.4073 C.ar      1 UNK         0.0000 
     18 C14        15.6711    1.5693   -2.0915 C.ar      1 UNK        -0.2920 
     19 C15        15.3832    2.0354   -0.7903 C.ar      1 UNK         0.2270 
     20 C16        15.3534    3.4188   -0.5357 C.ar      1 UNK        -0.4470 
     21 C17        15.5968    4.3049   -1.5946 C.ar      1 UNK         0.4730 
     22 N4         15.8275    3.8920   -2.8511 N.ar      1 UNK        -0.6780 
     23 C18        15.8598    2.5642   -3.0762 C.ar      1 UNK         0.4730 
     24 C19        15.3327   -0.8573   -1.5012 C.ar      1 UNK        -0.1150 
     25 C20        13.2767   -3.0094   -0.6368 C.2       1 UNK         0.6225 
     26 O1         12.3981   -3.0674   -1.5055 O.2       1 UNK        -0.5000 
     27 H1         10.9186   -2.8652    0.7627 H         1 UNK         0.0600 
     28 H2         11.6549   -2.5324    2.3309 H         1 UNK         0.0600 
     29 H3         11.5236   -1.2463    1.1212 H         1 UNK         0.0600 
     30 H4         15.3227   -2.3603    3.0599 H         1 UNK         0.4600 
     31 H5         16.2013   -2.9156    0.8573 H         1 UNK         0.3451 
     32 H6         17.0269   -4.6213   -0.0258 H         1 UNK         0.1150 
     33 H7         17.6766   -6.9514   -0.4085 H         1 UNK         0.1150 
     34 H8         16.1303   -8.4936   -1.5737 H         1 UNK         0.1150 
     35 H9         13.9707   -7.6399   -2.4763 H         1 UNK         0.1150 
     36 H10        13.3494   -5.2829   -2.1753 H         1 UNK         0.1150 
     37 H11        16.0279   -3.7000   -3.2902 H         1 UNK         0.1150 
     38 H12        16.8721   -2.0019   -4.8662 H         1 UNK         0.1150 
     39 H13        16.6873    0.3855   -4.3650 H         1 UNK         0.1150 
     40 H14        15.2242    1.3425    0.0224 H         1 UNK         0.0650 
     41 H15        15.1720    3.8040    0.4552 H         1 UNK         0.1550 
     42 H16        15.6063    5.3721   -1.4290 H         1 UNK         0.0120 
     43 H17        16.0319    2.2854   -4.1007 H         1 UNK         0.0120 
     44 H18        14.8915   -0.5357   -0.5697 H         1 UNK         0.1150 
     45 H19        13.6376   -2.0619    3.3080 H         1 UNK         0.4600 
@<TRIPOS>BOND
     1    1    2 1    
     2    1   27 1    
     3    1   28 1    
     4    1   29 1    
     5    2    3 1    
     6    2   25 am   BACKBONE|DICT|INTERRES
     7    3    4 ar   
     8    3    5 ar   
     9    4   30 1    
    10    4   45 1    
    11    5    6 1    
    12    5   31 1    
    13    6    7 1    
    14    6   13 1    
    15    6   25 1    
    16    7    8 ar   
    17    7   12 ar   
    18    8    9 ar   
    19    8   32 1    
    20    9   10 ar   
    21    9   33 1    
    22   10   11 ar   
    23   10   34 1    
    24   11   12 ar   
    25   11   35 1    
    26   12   36 1    
    27   13   14 ar   
    28   13   24 ar   
    29   14   15 ar   
    30   14   37 1    
    31   15   16 ar   
    32   15   38 1    
    33   16   17 ar   
    34   16   39 1    
    35   17   18 1    
    36   17   24 ar   
    37   18   19 ar   
    38   18   23 ar   
    39   19   20 ar   
    40   19   40 1    
    41   20   21 ar   
    42   20   41 1    
    43   21   22 ar   
    44   21   42 1    
    45   22   23 ar   
    46   23   43 1    
    47   24   44 1    
    48   25   26 2    
@<TRIPOS>SUBSTRUCTURE
     1 UNK         1 GROUP             0       ****    0 ROOT    
