@<TRIPOS>MOLECULE
CAT-4a
46   49    1
SMALL
USER_CHARGES


@<TRIPOS>ATOM
      1 C1         11.7155   -2.2816    1.2489 C.3       1 UNK        -0.0090 
      2 N1         13.0381   -2.6195    0.7079 N.am      1 UNK        -0.0184 
      3 C22        14.2057   -2.6014    1.3666 C.cat     1 UNK         0.5687 
      4 N2         14.3786   -2.3437    2.6660 N.pl3     1 UNK        -0.9138 
      5 N3         15.2286   -2.8858    0.5635 N.pl3     1 UNK        -0.5282 
      6 C2         14.8076   -3.2129   -0.8000 C.3       1 UNK         0.5630 
      7 C3         15.1467   -4.6965   -1.0818 C.ar      1 UNK        -0.1150 
      8 C4         16.3603   -5.2248   -0.5917 C.ar      1 UNK        -0.1150 
      9 C5         16.7228   -6.5667   -0.7953 C.ar      1 UNK        -0.1150 
     10 C6         15.8495   -7.4280   -1.4705 C.ar      1 UNK        -0.1150 
     11 C7         14.6354   -6.9314   -1.9715 C.ar      1 UNK        -0.1150 
     12 C8         14.2942   -5.5755   -1.7923 C.ar      1 UNK        -0.1150 
     13 C9         15.3967   -2.2027   -1.8015 C.ar      1 UNK        -0.1150 
     14 C10        15.9974   -2.6085   -3.0157 C.ar      1 UNK        -0.1150 
     15 C11        16.4805   -1.6424   -3.9173 C.ar      1 UNK        -0.1150 
     16 C12        16.3578   -0.2708   -3.6263 C.ar      1 UNK        -0.1150 
     17 C13        15.7919    0.1718   -2.4127 C.ar      1 UNK         0.0000 
     18 C14        15.6399    1.6146   -2.0981 C.ar      1 UNK         0.0000 
     19 C15        15.4538    2.5838   -3.1120 C.ar      1 UNK        -0.1150 
     20 C16        15.2099    3.9358   -2.7897 C.ar      1 UNK        -0.1150 
     21 C17        15.1604    4.3485   -1.4470 C.ar      1 UNK        -0.1150 
     22 C18        15.3892    3.4118   -0.4273 C.ar      1 UNK        -0.1150 
     23 C19        15.6325    2.0660   -0.7583 C.ar      1 UNK        -0.1150 
     24 C20        15.3278   -0.8153   -1.5134 C.ar      1 UNK        -0.1150 
     25 C21        13.2876   -2.9675   -0.6530 C.2       1 UNK         0.6225 
     26 O1         12.4113   -3.0211   -1.5243 O.2       1 UNK        -0.5000 
     27 H1         11.5248   -1.2189    1.1026 H         1 UNK         0.0600 
     28 H2         10.9265   -2.8405    0.7450 H         1 UNK         0.0600 
     29 H3         11.6590   -2.5032    2.3142 H         1 UNK         0.0600 
     30 H4         15.3225   -2.3533    3.0553 H         1 UNK         0.4600 
     31 H5         16.2073   -2.8876    0.8505 H         1 UNK         0.3451 
     32 H6         17.0256   -4.6002   -0.0248 H         1 UNK         0.1150 
     33 H7         17.6623   -6.9337   -0.4062 H         1 UNK         0.1150 
     34 H8         16.1115   -8.4656   -1.5844 H         1 UNK         0.1150 
     35 H9         13.9632   -7.5967   -2.4917 H         1 UNK         0.1150 
     36 H10        13.3568   -5.2350   -2.1940 H         1 UNK         0.1150 
     37 H11        16.0917   -3.6532   -3.2801 H         1 UNK         0.1150 
     38 H12        16.9372   -1.9475   -4.8486 H         1 UNK         0.1150 
     39 H13        16.7044    0.4465   -4.3531 H         1 UNK         0.1150 
     40 H14        15.4494    2.2872   -4.1504 H         1 UNK         0.1150 
     41 H15        15.0281    4.6607   -3.5680 H         1 UNK         0.1150 
     42 H16        14.9459    5.3789   -1.2001 H         1 UNK         0.1150 
     43 H17        15.3642    3.7204    0.6078 H         1 UNK         0.1150 
     44 H18        15.8121    1.3687    0.0406 H         1 UNK         0.1150 
     45 H19        14.8644   -0.4921   -0.5938 H         1 UNK         0.1150 
     46 H20        13.6372   -2.0531    3.3011 H         1 UNK         0.4600 
@<TRIPOS>BOND
     1    1    2 1    
     2    1   27 1    
     3    1   28 1    
     4    1   29 1    
     5    2    3 1    
     6    2   25 am   BACKBONE|DICT|INTERRES
     7    3    4 ar   
     8    3    5 ar   
     9    4   30 1    
    10    4   46 1    
    11    5    6 1    
    12    5   31 1    
    13    6    7 1    
    14    6   13 1    
    15    6   25 1    
    16    7    8 ar   
    17    7   12 ar   
    18    8    9 ar   
    19    8   32 1    
    20    9   10 ar   
    21    9   33 1    
    22   10   11 ar   
    23   10   34 1    
    24   11   12 ar   
    25   11   35 1    
    26   12   36 1    
    27   13   14 ar   
    28   13   24 ar   
    29   14   15 ar   
    30   14   37 1    
    31   15   16 ar   
    32   15   38 1    
    33   16   17 ar   
    34   16   39 1    
    35   17   18 1    
    36   17   24 ar   
    37   18   19 ar   
    38   18   23 ar   
    39   19   20 ar   
    40   19   40 1    
    41   20   21 ar   
    42   20   41 1    
    43   21   22 ar   
    44   21   42 1    
    45   22   23 ar   
    46   22   43 1    
    47   23   44 1    
    48   24   45 1    
    49   25   26 2    
@<TRIPOS>SUBSTRUCTURE
     1 UNK         1 GROUP             0       ****    0 ROOT    
