@<TRIPOS>MOLECULE
CAT-17b
47   50    1
SMALL
USER_CHARGES


@<TRIPOS>ATOM
      1 C1         14.8884    4.7758    1.2264 C.3       1 UNK         0.1100 
      2 O1         15.4957    3.5598    0.8392 O.3       1 UNK        -0.2850 
      3 C20        15.4238    3.2070   -0.4882 C.ar      1 UNK         0.0850 
      4 C2         15.1334    4.1078   -1.5370 C.ar      1 UNK        -0.1150 
      5 C3         15.1104    3.6468   -2.8636 C.ar      1 UNK        -0.1150 
      6 C4         15.3679    2.2912   -3.1537 C.ar      1 UNK        -0.1150 
      7 C5         15.6266    1.3615   -2.1168 C.ar      1 UNK         0.0000 
      8 C6         15.8148   -0.0835   -2.3955 C.ar      1 UNK         0.0000 
      9 C7         16.3949   -0.4894   -3.6079 C.ar      1 UNK        -0.1150 
     10 C8         16.5054   -1.8465   -3.9388 C.ar      1 UNK        -0.1150 
     11 C9         16.0401   -2.8367   -3.0545 C.ar      1 UNK        -0.1150 
     12 C10        15.4687   -2.4844   -1.8058 C.ar      1 UNK        -0.1150 
     13 C11        14.8765   -3.4953   -0.7767 C.3       1 UNK         0.4480 
     14 C12        15.0969   -5.0253   -0.8826 C.3       1 UNK        -0.0600 
     15 C13        14.8831   -5.8408   -2.1342 C.3       1 UNK        -0.1200 
     16 C14        16.2579   -5.7566   -1.5174 C.3       1 UNK        -0.1200 
     17 N1         15.2831   -3.1271    0.5768 N.pl3     1 UNK        -0.5282 
     18 C15        14.2456   -2.7938    1.3470 C.cat     1 UNK         0.5687 
     19 N2         14.3920   -2.4607    2.6335 N.pl3     1 UNK        -0.9138 
     20 N3         13.0879   -2.8500    0.6736 N.am      1 UNK        -0.0184 
     21 C16        11.7608   -2.5496    1.2227 C.3       1 UNK        -0.0090 
     22 C17        13.3577   -3.2550   -0.6672 C.2       1 UNK         0.6225 
     23 O2         12.4975   -3.3906   -1.5423 O.2       1 UNK        -0.5000 
     24 C18        15.3879   -1.0935   -1.4999 C.ar      1 UNK        -0.1150 
     25 C19        15.6597    1.8544   -0.7971 C.ar      1 UNK        -0.1150 
     26 H1         14.9248    4.8682    2.3123 H         1 UNK         0.0300 
     27 H2         15.3955    5.6327    0.7976 H         1 UNK         0.0300 
     28 H3         13.8484    4.8040    0.9119 H         1 UNK         0.0300 
     29 H4         14.9345    5.1528   -1.3550 H         1 UNK         0.1150 
     30 H5         14.8807    4.3379   -3.6572 H         1 UNK         0.1150 
     31 H6         15.3228    1.9594   -4.1830 H         1 UNK         0.1150 
     32 H7         16.7454    0.2546   -4.3045 H         1 UNK         0.1150 
     33 H8         16.9433   -2.1069   -4.8912 H         1 UNK         0.1150 
     34 H9         16.1427   -3.8499   -3.3919 H         1 UNK         0.1150 
     35 H10        14.7320   -5.5257    0.0163 H         1 UNK         0.0600 
     36 H11        14.3435   -6.7811   -2.0394 H         1 UNK         0.0600 
     37 H12        14.6921   -5.3031   -3.0518 H         1 UNK         0.0600 
     38 H13        17.0103   -5.2043   -2.0606 H         1 UNK         0.0600 
     39 H14        16.6257   -6.6394   -0.9948 H         1 UNK         0.0600 
     40 H15        16.2616   -3.0818    0.8652 H         1 UNK         0.3451 
     41 H16        13.6434   -2.1215    3.2365 H         1 UNK         0.4600 
     42 H17        11.8062   -1.5722    1.6900 H         1 UNK         0.0600 
     43 H18        11.4779   -3.2829    1.9791 H         1 UNK         0.0600 
     44 H19        10.9878   -2.5218    0.4540 H         1 UNK         0.0600 
     45 H20        14.9339   -0.7828   -0.5721 H         1 UNK         0.1150 
     46 H21        15.8580    1.1777    0.0148 H         1 UNK         0.1150 
     47 H22        15.3342   -2.4335    3.0256 H         1 UNK         0.4600 
@<TRIPOS>BOND
     1    1    2 1    
     2    1   26 1    
     3    1   27 1    
     4    1   28 1    
     5    2    3 1    
     6    3    4 ar   
     7    3   25 ar   
     8    4    5 ar   
     9    4   29 1    
    10    5    6 ar   
    11    5   30 1    
    12    6    7 ar   
    13    6   31 1    
    14    7    8 1    
    15    7   25 ar   
    16    8    9 ar   
    17    8   24 ar   
    18    9   10 ar   
    19    9   32 1    
    20   10   11 ar   
    21   10   33 1    
    22   11   12 ar   
    23   11   34 1    
    24   12   13 1    
    25   12   24 ar   
    26   13   14 1    
    27   13   17 1    
    28   13   22 1    
    29   14   15 1    
    30   14   16 1    
    31   14   35 1    
    32   15   16 1    
    33   15   36 1    
    34   15   37 1    
    35   16   38 1    
    36   16   39 1    
    37   17   18 ar   
    38   17   40 1    
    39   18   19 ar   
    40   18   20 1    
    41   19   41 1    
    42   19   47 1    
    43   20   21 1    
    44   20   22 am   BACKBONE|DICT|INTERRES
    45   21   42 1    
    46   21   43 1    
    47   21   44 1    
    48   22   23 2    
    49   24   45 1    
    50   25   46 1    
@<TRIPOS>SUBSTRUCTURE
     1 UNK         1 GROUP             0       ****    0 ROOT    
