@<TRIPOS>MOLECULE
CAT-13a
39   41    1
SMALL
USER_CHARGES


@<TRIPOS>ATOM
      1 C1         11.8131   -2.0987    1.0830 C.3       1 UNK        -0.0090 
      2 N1         13.1334   -2.4685    0.5575 N.am      1 UNK        -0.0184 
      3 C17        14.2851   -2.5312    1.2456 C.cat     1 UNK         0.5687 
      4 N2         14.4325   -2.3246    2.5605 N.pl3     1 UNK        -0.9138 
      5 N3         15.3127   -2.8534    0.4546 N.pl3     1 UNK        -0.5282 
      6 C2         14.9092   -3.0355   -0.9381 C.3       1 UNK         0.3780 
      7 C3         15.1892   -4.4889   -1.3783 C.3       1 UNK        -0.1100 
      8 C4         15.5119   -1.9635   -1.8624 C.ar      1 UNK        -0.1150 
      9 C5         16.1763   -2.3128   -3.0620 C.ar      1 UNK        -0.1150 
     10 C6         16.6330   -1.3124   -3.9325 C.ar      1 UNK        -0.1150 
     11 C7         16.4138    0.0423   -3.6288 C.ar      1 UNK        -0.1150 
     12 C8         15.7987    0.4335   -2.4212 C.ar      1 UNK         0.0000 
     13 C9         15.5499    1.8627   -2.1170 C.ar      1 UNK         0.0000 
     14 C10        15.2538    2.7805   -3.1519 C.ar      1 UNK        -0.1150 
     15 C11        14.9338    4.1236   -2.8692 C.ar      1 UNK        -0.1150 
     16 C12        14.9160    4.5776   -1.5397 C.ar      1 UNK        -0.1150 
     17 C13        15.2415    3.6932   -0.4988 C.ar      1 UNK         0.1800 
     18 CL1        15.2369    4.2623    1.1298 Cl        1 UNK        -0.1800 
     19 C14        15.5569    2.3502   -0.7887 C.ar      1 UNK        -0.1150 
     20 C15        15.3759   -0.5881   -1.5399 C.ar      1 UNK        -0.1150 
     21 C16        13.3951   -2.8048   -0.8053 C.2       1 UNK         0.6225 
     22 O1         12.5342   -2.8850   -1.6872 O.2       1 UNK        -0.5000 
     23 H1         11.6713   -1.0230    0.9798 H         1 UNK         0.0600 
     24 H2         11.0133   -2.6016    0.5387 H         1 UNK         0.0600 
     25 H3         11.7238   -2.3620    2.1367 H         1 UNK         0.0600 
     26 H4         15.3677   -2.3767    2.9680 H         1 UNK         0.4600 
     27 H5         16.2865   -2.8882    0.7611 H         1 UNK         0.3451 
     28 H6         16.2597   -4.6769   -1.4694 H         1 UNK         0.0600 
     29 H7         14.8010   -5.2068   -0.6550 H         1 UNK         0.0600 
     30 H8         14.7220   -4.7157   -2.3385 H         1 UNK         0.0600 
     31 H9         16.3361   -3.3388   -3.3593 H         1 UNK         0.1150 
     32 H10        17.1291   -1.5869   -4.8533 H         1 UNK         0.1150 
     33 H11        16.7243    0.7863   -4.3449 H         1 UNK         0.1150 
     34 H12        15.2245    2.4443   -4.1780 H         1 UNK         0.1150 
     35 H13        14.6756    4.8036   -3.6677 H         1 UNK         0.1150 
     36 H14        14.6511    5.6013   -1.3159 H         1 UNK         0.1150 
     37 H15        15.8011    1.6882    0.0253 H         1 UNK         0.1150 
     38 H16        14.8782   -0.3031   -0.6255 H         1 UNK         0.1150 
     39 H17        13.6878   -2.0197    3.1842 H         1 UNK         0.4600 
@<TRIPOS>BOND
     1    1    2 1    
     2    1   23 1    
     3    1   24 1    
     4    1   25 1    
     5    2    3 1    
     6    2   21 am   BACKBONE|DICT|INTERRES
     7    3    4 ar   
     8    3    5 ar   
     9    4   26 1    
    10    4   39 1    
    11    5    6 1    
    12    5   27 1    
    13    6    7 1    
    14    6    8 1    
    15    6   21 1    
    16    7   28 1    
    17    7   29 1    
    18    7   30 1    
    19    8    9 ar   
    20    8   20 ar   
    21    9   10 ar   
    22    9   31 1    
    23   10   11 ar   
    24   10   32 1    
    25   11   12 ar   
    26   11   33 1    
    27   12   13 1    
    28   12   20 ar   
    29   13   14 ar   
    30   13   19 ar   
    31   14   15 ar   
    32   14   34 1    
    33   15   16 ar   
    34   15   35 1    
    35   16   17 ar   
    36   16   36 1    
    37   17   18 1    
    38   17   19 ar   
    39   19   37 1    
    40   20   38 1    
    41   21   22 2    
@<TRIPOS>SUBSTRUCTURE
     1 UNK         1 GROUP             0       ****    0 ROOT    
