@<TRIPOS>MOLECULE
CAT-4l
44   47    1
SMALL
USER_CHARGES


@<TRIPOS>ATOM
      1 C1         11.7113   -2.3112    1.2622 C.3       1 UNK        -0.0090 
      2 N1         13.0352   -2.6402    0.7179 N.am      1 UNK        -0.0184 
      3 C20        14.2035   -2.6174    1.3751 C.cat     1 UNK         0.5687 
      4 N2         14.3765   -2.3591    2.6742 N.pl3     1 UNK        -0.9138 
      5 N3         15.2269   -2.8949    0.5700 N.pl3     1 UNK        -0.5282 
      6 C2         14.8063   -3.2175   -0.7951 C.3       1 UNK         0.5630 
      7 C3         15.1524   -4.6977   -1.0845 C.ar      1 UNK        -0.1150 
      8 C4         14.3046   -5.5761   -1.8014 C.ar      1 UNK        -0.1150 
      9 C5         14.6497   -6.9306   -1.9839 C.ar      1 UNK        -0.1150 
     10 C6         15.8625   -7.4264   -1.4792 C.ar      1 UNK        -0.1150 
     11 C7         16.7308   -6.5656   -0.7973 C.ar      1 UNK        -0.1150 
     12 C8         16.3649   -5.2251   -0.5912 C.ar      1 UNK        -0.1150 
     13 C9         15.3844   -2.1979   -1.7957 C.ar      1 UNK        -0.1150 
     14 C10        15.9241   -2.5916   -3.0422 C.ar      1 UNK        -0.1150 
     15 C11        16.3874   -1.6183   -3.9470 C.ar      1 UNK        -0.1150 
     16 C12        16.3038   -0.2493   -3.6280 C.ar      1 UNK        -0.1150 
     17 C13        15.8001    0.1816   -2.3818 C.ar      1 UNK         0.0000 
     18 C14        15.7084    1.6222   -2.0291 C.ar      1 UNK         0.2340 
     19 C15        15.7056    2.0785   -0.6865 C.ar      1 UNK         0.1920 
     20 N4         15.5288    3.3733   -0.3397 N.ar      1 UNK        -0.4680 
     21 C16        15.3497    4.2346   -1.3629 C.ar      1 UNK         0.1920 
     22 C17        15.3873    3.8092   -2.7078 C.ar      1 UNK         0.1920 
     23 N5         15.5688    2.5097   -3.0474 N.ar      1 UNK        -0.4680 
     24 C18        15.3588   -0.8146   -1.4792 C.ar      1 UNK        -0.1150 
     25 C19        13.2854   -2.9804   -0.6448 C.2       1 UNK         0.6225 
     26 O1         12.4099   -3.0279   -1.5170 O.2       1 UNK        -0.5000 
     27 H1         10.9248   -2.8724    0.7569 H         1 UNK         0.0600 
     28 H2         11.6571   -2.5377    2.3265 H         1 UNK         0.0600 
     29 H3         11.5141   -1.2490    1.1211 H         1 UNK         0.0600 
     30 H4         15.3205   -2.3643    3.0635 H         1 UNK         0.4600 
     31 H5         16.2054   -2.8992    0.8580 H         1 UNK         0.3451 
     32 H6         13.3663   -5.2373   -2.2023 H         1 UNK         0.1150 
     33 H7         13.9797   -7.5967   -2.5060 H         1 UNK         0.1150 
     34 H8         16.1272   -8.4631   -1.5949 H         1 UNK         0.1150 
     35 H9         17.6704   -6.9318   -0.4070 H         1 UNK         0.1150 
     36 H10        17.0276   -4.6014   -0.0205 H         1 UNK         0.1150 
     37 H11        15.9843   -3.6329   -3.3297 H         1 UNK         0.1150 
     38 H12        16.7976   -1.9165   -4.9021 H         1 UNK         0.1150 
     39 H13        16.6290    0.4808   -4.3551 H         1 UNK         0.1150 
     40 H14        15.8527    1.3926    0.1280 H         1 UNK         0.0420 
     41 H15        15.1811    5.2706   -1.1089 H         1 UNK         0.0420 
     42 H16        15.2465    4.5234   -3.5029 H         1 UNK         0.0420 
     43 H17        14.9460   -0.5019   -0.5323 H         1 UNK         0.1150 
     44 H18        13.6343   -2.0707    3.3097 H         1 UNK         0.4600 
@<TRIPOS>BOND
     1    1    2 1    
     2    1   27 1    
     3    1   28 1    
     4    1   29 1    
     5    2    3 1    
     6    2   25 am   BACKBONE|DICT|INTERRES
     7    3    4 ar   
     8    3    5 ar   
     9    4   30 1    
    10    4   44 1    
    11    5    6 1    
    12    5   31 1    
    13    6    7 1    
    14    6   13 1    
    15    6   25 1    
    16    7    8 ar   
    17    7   12 ar   
    18    8    9 ar   
    19    8   32 1    
    20    9   10 ar   
    21    9   33 1    
    22   10   11 ar   
    23   10   34 1    
    24   11   12 ar   
    25   11   35 1    
    26   12   36 1    
    27   13   14 ar   
    28   13   24 ar   
    29   14   15 ar   
    30   14   37 1    
    31   15   16 ar   
    32   15   38 1    
    33   16   17 ar   
    34   16   39 1    
    35   17   18 1    
    36   17   24 ar   
    37   18   19 ar   
    38   18   23 ar   
    39   19   20 ar   
    40   19   40 1    
    41   20   21 ar   
    42   21   22 ar   
    43   21   41 1    
    44   22   23 ar   
    45   22   42 1    
    46   24   43 1    
    47   25   26 2    
@<TRIPOS>SUBSTRUCTURE
     1 UNK         1 GROUP             0       ****    0 ROOT    
