@<TRIPOS>MOLECULE
CAT-17d
42   45    1
SMALL
USER_CHARGES


@<TRIPOS>ATOM
      1 C1         11.7977   -2.3768    1.0760 C.3       1 UNK        -0.0090 
      2 N1         13.1459   -2.6842    0.5802 N.am      1 UNK        -0.0184 
      3 C18        14.2820   -2.6162    1.2890 C.cat     1 UNK         0.5687 
      4 N2         14.3880   -2.3333    2.5929 N.pl3     1 UNK        -0.9138 
      5 N3         15.3451   -2.8870    0.5330 N.pl3     1 UNK        -0.5282 
      6 C2         15.0000   -3.2006   -0.8473 C.3       1 UNK         0.4480 
      7 C3         15.5362   -2.1321   -1.8176 C.ar      1 UNK        -0.1150 
      8 C4         16.1095   -2.4879   -3.0612 C.ar      1 UNK        -0.1150 
      9 C5         16.5405   -1.4924   -3.9515 C.ar      1 UNK        -0.1150 
     10 C6         16.3829   -0.1350   -3.6257 C.ar      1 UNK        -0.1150 
     11 C7         15.8368    0.2631   -2.3866 C.ar      1 UNK         0.0000 
     12 C8         15.6544    1.6970   -2.0542 C.ar      1 UNK        -0.2920 
     13 C9         15.2127    2.1200   -0.7816 C.ar      1 UNK         0.2270 
     14 C10        15.1203    3.4931   -0.4934 C.ar      1 UNK        -0.4470 
     15 C11        15.4606    4.4145   -1.4945 C.ar      1 UNK         0.4730 
     16 N4         15.8427    4.0423   -2.7276 N.ar      1 UNK        -0.6780 
     17 C12        15.9326    2.7223   -2.9846 C.ar      1 UNK         0.4730 
     18 C13        15.4332   -0.7556   -1.4907 C.ar      1 UNK        -0.1150 
     19 C14        15.5628   -4.6033   -1.1362 C.3       1 UNK        -0.0600 
     20 C15        14.9337   -5.8832   -0.6203 C.3       1 UNK        -0.1200 
     21 C16        14.9467   -5.5942   -2.1006 C.3       1 UNK        -0.1200 
     22 C17        13.4637   -3.0777   -0.7576 C.2       1 UNK         0.6225 
     23 O1         12.6273   -3.2367   -1.6520 O.2       1 UNK        -0.5000 
     24 H1         11.6615   -1.2961    1.1107 H         1 UNK         0.0600 
     25 H2         11.0248   -2.7976    0.4323 H         1 UNK         0.0600 
     26 H3         11.6576   -2.7733    2.0815 H         1 UNK         0.0600 
     27 H4         13.6132   -2.0582    3.1930 H         1 UNK         0.4600 
     28 H5         16.3125   -2.8621    0.8622 H         1 UNK         0.3451 
     29 H6         16.2237   -3.5177   -3.3675 H         1 UNK         0.1150 
     30 H7         16.9793   -1.7687   -4.9004 H         1 UNK         0.1150 
     31 H8         16.6906    0.6002   -4.3526 H         1 UNK         0.1150 
     32 H9         14.9814    1.4015   -0.0100 H         1 UNK         0.0650 
     33 H10        14.8167    3.8387    0.4829 H         1 UNK         0.1550 
     34 H11        15.4210    5.4767   -1.3017 H         1 UNK         0.0120 
     35 H12        16.2303    2.4767   -3.9890 H         1 UNK         0.0120 
     36 H13        14.9900   -0.4732   -0.5474 H         1 UNK         0.1150 
     37 H14        16.6502   -4.6083   -1.1158 H         1 UNK         0.0600 
     38 H15        13.9732   -5.8335   -0.1114 H         1 UNK         0.0600 
     39 H16        15.6051   -6.6610   -0.2611 H         1 UNK         0.0600 
     40 H17        13.9926   -5.3553   -2.5563 H         1 UNK         0.0600 
     41 H18        15.6238   -6.1725   -2.7271 H         1 UNK         0.0600 
     42 H19        15.3135   -2.3235    3.0234 H         1 UNK         0.4600 
@<TRIPOS>BOND
     1    1    2 1    
     2    1   24 1    
     3    1   25 1    
     4    1   26 1    
     5    2    3 1    
     6    2   22 am   BACKBONE|DICT|INTERRES
     7    3    4 ar   
     8    3    5 ar   
     9    4   27 1    
    10    4   42 1    
    11    5    6 1    
    12    5   28 1    
    13    6    7 1    
    14    6   19 1    
    15    6   22 1    
    16    7    8 ar   
    17    7   18 ar   
    18    8    9 ar   
    19    8   29 1    
    20    9   10 ar   
    21    9   30 1    
    22   10   11 ar   
    23   10   31 1    
    24   11   12 1    
    25   11   18 ar   
    26   12   13 ar   
    27   12   17 ar   
    28   13   14 ar   
    29   13   32 1    
    30   14   15 ar   
    31   14   33 1    
    32   15   16 ar   
    33   15   34 1    
    34   16   17 ar   
    35   17   35 1    
    36   18   36 1    
    37   19   20 1    
    38   19   21 1    
    39   19   37 1    
    40   20   21 1    
    41   20   38 1    
    42   20   39 1    
    43   21   40 1    
    44   21   41 1    
    45   22   23 2    
@<TRIPOS>SUBSTRUCTURE
     1 UNK         1 GROUP             0       ****    0 ROOT    
